Program Version,EnergyPlus, Version 8.8.0-7c3bbe4830, YMD=2018.08.31 07:45
! <Version>, Version ID
 Version, 8.8
! <Timesteps per Hour>, #TimeSteps, Minutes per TimeStep {minutes}
 Timesteps per Hour,  6, 10
! <System Convergence Limits>, Minimum System TimeStep {minutes}, Max HVAC Iterations, Minimum Plant Iterations, Maximum Plant Iterations
 System Convergence Limits, 2, 25, 2, 8
! <Simulation Control>, Do Zone Sizing, Do System Sizing, Do Plant Sizing, Do Design Days, Do Weather Simulation, Do HVAC Sizing Simulation
 Simulation Control, Yes, Yes, Yes, No, Yes, No
! <Output Reporting Tolerances>, Tolerance for Time Heating Setpoint Not Met, Tolerance for Zone Cooling Setpoint Not Met Time
 Output Reporting Tolerances, 0.556, 0.556, 
! <Site:GroundTemperature:BuildingSurface>,Jan{C},Feb{C},Mar{C},Apr{C},May{C},Jun{C},Jul{C},Aug{C},Sep{C},Oct{C},Nov{C},Dec{C}
 Site:GroundTemperature:BuildingSurface,  19.71,  19.66,  19.71,  19.75,  20.49,  22.11,  22.46,  22.55,  22.17,  20.61,  20.05,  19.80
! <Site:GroundTemperature:FCfactorMethod>,Jan{C},Feb{C},Mar{C},Apr{C},May{C},Jun{C},Jul{C},Aug{C},Sep{C},Oct{C},Nov{C},Dec{C}
 Site:GroundTemperature:FCfactorMethod,   2.18,   1.16,   2.97,   5.81,  13.21,  18.93,  22.79,  23.96,  21.96,  17.52,  11.59,   6.09
! <Site:GroundTemperature:Shallow>,Jan{C},Feb{C},Mar{C},Apr{C},May{C},Jun{C},Jul{C},Aug{C},Sep{C},Oct{C},Nov{C},Dec{C}
 Site:GroundTemperature:Shallow,  13.00,  13.00,  13.00,  13.00,  13.00,  13.00,  13.00,  13.00,  13.00,  13.00,  13.00,  13.00
! <Site:GroundTemperature:Deep>,Jan{C},Feb{C},Mar{C},Apr{C},May{C},Jun{C},Jul{C},Aug{C},Sep{C},Oct{C},Nov{C},Dec{C}
 Site:GroundTemperature:Deep,  16.00,  16.00,  16.00,  16.00,  16.00,  16.00,  16.00,  16.00,  16.00,  16.00,  16.00,  16.00
! <Site:GroundReflectance>,Jan{dimensionless},Feb{dimensionless},Mar{dimensionless},Apr{dimensionless},May{dimensionless},Jun{dimensionless},Jul{dimensionless},Aug{dimensionless},Sep{dimensionless},Oct{dimensionless},Nov{dimensionless},Dec{dimensionless}
 Site:GroundReflectance,  0.20,  0.20,  0.20,  0.20,  0.20,  0.20,  0.20,  0.20,  0.20,  0.20,  0.20,  0.20
! <Site:GroundReflectance:SnowModifier>, Normal, Daylighting {dimensionless}
 Site:GroundReflectance:SnowModifier,   1.000,   1.000
! <Site:GroundReflectance:Snow>,Jan{dimensionless},Feb{dimensionless},Mar{dimensionless},Apr{dimensionless},May{dimensionless},Jun{dimensionless},Jul{dimensionless},Aug{dimensionless},Sep{dimensionless},Oct{dimensionless},Nov{dimensionless},Dec{dimensionless}
 Site:GroundReflectance:Snow,  0.20,  0.20,  0.20,  0.20,  0.20,  0.20,  0.20,  0.20,  0.20,  0.20,  0.20,  0.20
! <Site:GroundReflectance:Snow:Daylighting>,Jan{dimensionless},Feb{dimensionless},Mar{dimensionless},Apr{dimensionless},May{dimensionless},Jun{dimensionless},Jul{dimensionless},Aug{dimensionless},Sep{dimensionless},Oct{dimensionless},Nov{dimensionless},Dec{dimensionless}
 Site:GroundReflectance:Snow:Daylighting,  0.20,  0.20,  0.20,  0.20,  0.20,  0.20,  0.20,  0.20,  0.20,  0.20,  0.20,  0.20
! <Environment:Weather Station>,Wind Sensor Height Above Ground {m},Wind Speed Profile Exponent {},Wind Speed Profile Boundary Layer Thickness {m},Air Temperature Sensor Height Above Ground {m},Wind Speed Modifier Coefficient-Internal,Temperature Modifier Coefficient-Internal
Environment:Weather Station,10.000,0.140,270.000,1.500,1.586,9.750E-003
! <Site:Location>, Location Name, Latitude {N+/S- Deg}, Longitude {E+/W- Deg},  Time Zone Number {GMT+/-}, Elevation {m},  Standard Pressure at Elevation {Pa}, Standard RhoAir at Elevation
Site:Location,BALTIMORE MD USA TMY2-93721 WMO#=724060,39.18,-76.67,-5.00,47.00,100762,1.1976
! <Building Information>, Building Name,North Axis {deg},Terrain,  Loads Convergence Tolerance Value,Temperature Convergence Tolerance Value,  Solar Distribution,Maximum Number of Warmup Days,Minimum Number of Warmup Days
 Building Information,Ref Bldg Primary School New2004_v1.3_5.0,0.000,City,4.00000E-002,0.20000,FullInteriorAndExterior,25,6
! <Inside Convection Algorithm>, Algorithm {Simple | TARP | CeilingDiffuser | AdaptiveConvectionAlgorithm}
Inside Convection Algorithm,TARP
! <Outside Convection Algorithm>, Algorithm {SimpleCombined | TARP | MoWitt | DOE-2 | AdaptiveConvectionAlgorithm}
Outside Convection Algorithm,DOE-2
! <Sky Radiance Distribution>, Value {Anisotropic}
Sky Radiance Distribution,Anisotropic
! <Zone Air Solution Algorithm>, Value {ThirdOrderBackwardDifference | AnalyticalSolution | EulerMethod}
 Zone Air Solution Algorithm, AnalyticalSolution
! <Zone Air Carbon Dioxide Balance Simulation>, Simulation {Yes/No}, Carbon Dioxide Concentration
 Zone Air Carbon Dioxide Balance Simulation, No,N/A
! <Zone Air Generic Contaminant Balance Simulation>, Simulation {Yes/No}, Generic Contaminant Concentration
 Zone Air Generic Contaminant Balance Simulation, No,N/A
! <Zone Air Mass Flow Balance Simulation>, Enforce Mass Balance, Adjust Zone Mixing, Adjust Zone Infiltration {AddInfiltration | AdjustInfiltration | None}, Infiltration Zones {MixingSourceZonesOnly | AllZones}
 Zone Air Mass Flow Balance Simulation, No,N/A,N/A,N/A
! <HVACSystemRootFindingAlgorithm>, Value {RegulaFalsi | Bisection | BisectionThenRegulaFalsi | RegulaFalsiThenBisection}
 HVACSystemRootFindingAlgorithm, RegulaFalsi
! <Environment:Site Atmospheric Variation>,Wind Speed Profile Exponent {},Wind Speed Profile Boundary Layer Thickness {m},Air Temperature Gradient Coefficient {K/m}
Environment:Site Atmospheric Variation,0.330,460.000,6.500000E-003
! <Surface Geometry>,Starting Corner,Vertex Input Direction,Coordinate System,Daylight Reference Point Coordinate System,Rectangular (Simple) Surface Coordinate System
 Surface Geometry,UpperLeftCorner,Counterclockwise,RelativeCoordinateSystem,RelativeCoordinateSystem,RelativeToZoneOrigin
! <Surface Heat Transfer Algorithm>, Value {CTF - ConductionTransferFunction | EMPD - MoisturePenetrationDepthConductionTransferFunction | CondFD - ConductionFiniteDifference | HAMT - CombinedHeatAndMoistureFiniteElement} - Description,Inside Surface Max Temperature Limit{C}, Surface Convection Coefficient Lower Limit {W/m2-K}, Surface Convection Coefficient Upper Limit {W/m2-K}
Surface Heat Transfer Algorithm, CTF - ConductionTransferFunction,200,0.10,1000.0
! <Shading Summary>, Number of Fixed Detached Shades, Number of Building Detached Shades, Number of Attached Shades
 Shading Summary,0,0,0
! <Zone Summary>, Number of Zones, Number of Zone Surfaces, Number of SubSurfaces
 Zone Summary,25,238,42
! <Zone Information>,Zone Name,North Axis {deg},Origin X-Coordinate {m},Origin Y-Coordinate {m},Origin Z-Coordinate {m},Centroid X-Coordinate {m},Centroid Y-Coordinate {m},Centroid Z-Coordinate {m},Type,Zone Multiplier,Zone List Multiplier,Minimum X {m},Maximum X {m},Minimum Y {m},Maximum Y {m},Minimum Z {m},Maximum Z {m},Ceiling Height {m},Volume {m3},Zone Inside Convection Algorithm {Simple-Detailed-CeilingDiffuser-TrombeWall},Zone Outside Convection Algorithm {Simple-Detailed-Tarp-MoWitt-DOE-2-BLAST}, Floor Area {m2},Exterior Gross Wall Area {m2},Exterior Net Wall Area {m2},Exterior Window Area {m2}, Number of Surfaces, Number of SubSurfaces, Number of Shading SubSurfaces,  Part of Total Building Area
 Zone Information, BATH_ZN_1_FLR_1,0.0,0.00,51.00,0.00,9.50,56.00,2.00,1,1,1,0.00,19.00,51.00,61.00,0.00,4.00,4.00,760.00,TARP,DOE-2,190.00,40.00,26.00,14.00,7,1,0,Yes
 Zone Information, CAFETERIA_ZN_1_FLR_1,0.0,19.00,46.00,0.00,29.50,53.50,2.00,1,1,1,19.00,40.00,46.00,61.00,0.00,4.00,4.00,1260.00,TARP,DOE-2,315.00,144.00,93.60,50.40,7,2,0,Yes
 Zone Information, COMPUTER_CLASS_ZN_1_FLR_1,0.0,-18.00,73.00,0.00,-9.00,77.50,2.00,1,1,1,-18.00,0.00,73.00,82.00,0.00,4.00,4.00,648.00,TARP,DOE-2,162.00,72.00,46.80,25.20,6,1,0,Yes
 Zone Information, CORNER_CLASS_1_POD_1_ZN_1_FLR_1,0.0,-64.00,0.00,0.00,-58.50,4.50,2.00,1,1,1,-64.00,-53.00,0.00,9.00,0.00,4.00,4.00,396.00,TARP,DOE-2,99.00,80.00,52.00,28.00,6,2,0,Yes
 Zone Information, CORNER_CLASS_1_POD_2_ZN_1_FLR_1,0.0,-64.00,30.00,0.00,-58.50,34.50,2.00,1,1,1,-64.00,-53.00,30.00,39.00,0.00,4.00,4.00,396.00,TARP,DOE-2,99.00,80.00,52.00,28.00,6,2,0,Yes
 Zone Information, CORNER_CLASS_1_POD_3_ZN_1_FLR_1,0.0,-64.00,61.00,0.00,-58.50,65.50,2.00,1,1,1,-64.00,-53.00,61.00,70.00,0.00,4.00,4.00,396.00,TARP,DOE-2,99.00,80.00,52.00,28.00,6,2,0,Yes
 Zone Information, CORNER_CLASS_2_POD_1_ZN_1_FLR_1,0.0,-64.00,12.00,0.00,-58.50,16.50,2.00,1,1,1,-64.00,-53.00,12.00,21.00,0.00,4.00,4.00,396.00,TARP,DOE-2,99.00,80.00,52.00,28.00,6,2,0,Yes
 Zone Information, CORNER_CLASS_2_POD_2_ZN_1_FLR_1,0.0,-64.00,42.00,0.00,-58.50,46.50,2.00,1,1,1,-64.00,-53.00,42.00,51.00,0.00,4.00,4.00,396.00,TARP,DOE-2,99.00,80.00,52.00,28.00,6,2,0,Yes
 Zone Information, CORNER_CLASS_2_POD_3_ZN_1_FLR_1,0.0,-64.00,73.00,0.00,-58.50,77.50,2.00,1,1,1,-64.00,-53.00,73.00,82.00,0.00,4.00,4.00,396.00,TARP,DOE-2,99.00,80.00,52.00,28.00,6,2,0,Yes
 Zone Information, CORRIDOR_POD_1_ZN_1_FLR_1,0.0,-64.00,9.00,0.00,-32.00,10.50,2.00,1,1,1,-64.00,0.00,9.00,12.00,0.00,4.00,4.00,768.00,TARP,DOE-2,192.00,12.00,7.80,4.20,8,1,0,Yes
 Zone Information, CORRIDOR_POD_2_ZN_1_FLR_1,0.0,-64.00,39.00,0.00,-32.00,40.50,2.00,1,1,1,-64.00,0.00,39.00,42.00,0.00,4.00,4.00,768.00,TARP,DOE-2,192.00,12.00,7.80,4.20,8,1,0,Yes
 Zone Information, CORRIDOR_POD_3_ZN_1_FLR_1,0.0,-64.00,70.00,0.00,-32.00,71.50,2.00,1,1,1,-64.00,0.00,70.00,73.00,0.00,4.00,4.00,768.00,TARP,DOE-2,192.00,12.00,7.80,4.20,9,1,0,Yes
 Zone Information, GYM_ZN_1_FLR_1,0.0,19.00,21.00,0.00,29.50,29.50,2.00,1,1,1,19.00,40.00,21.00,38.00,0.00,4.00,4.00,1428.00,TARP,DOE-2,357.00,68.00,44.20,37.18,6,10,0,Yes
 Zone Information, KITCHEN_ZN_1_FLR_1,0.0,19.00,38.00,0.00,29.50,42.00,2.00,1,1,1,19.00,40.00,38.00,46.00,0.00,4.00,4.00,672.00,TARP,DOE-2,168.00,32.00,20.80,11.20,6,1,0,Yes
 Zone Information, LIBRARY_MEDIA_CENTER_ZN_1_FLR_1,0.0,0.00,61.00,0.00,9.50,71.50,2.00,1,1,1,0.00,19.00,61.00,82.00,0.00,4.00,4.00,1596.00,TARP,DOE-2,399.00,160.00,104.00,56.00,8,2,0,Yes
 Zone Information, LOBBY_ZN_1_FLR_1,0.0,0.00,0.00,0.00,9.50,4.50,2.00,1,1,1,0.00,19.00,0.00,9.00,0.00,4.00,4.00,684.00,TARP,DOE-2,171.00,76.00,49.40,26.60,7,1,0,Yes
 Zone Information, MAIN_CORRIDOR_ZN_1_FLR_1,0.0,0.00,9.00,0.00,6.50,30.00,2.00,1,1,1,0.00,13.00,9.00,51.00,0.00,4.00,4.00,2184.00,TARP,DOE-2,546.00,36.00,23.40,12.60,11,1,0,Yes
 Zone Information, MECH_ZN_1_FLR_1,0.0,13.00,9.00,0.00,16.00,30.00,2.00,1,1,1,13.00,19.00,9.00,51.00,0.00,4.00,4.00,1008.00,TARP,DOE-2,252.00,0.00,0.00,0.00,9,0,0,Yes
 Zone Information, MULT_CLASS_1_POD_1_ZN_1_FLR_1,0.0,-53.00,0.00,0.00,-26.50,4.50,2.00,1,1,1,-53.00,0.00,0.00,9.00,0.00,4.00,4.00,1908.00,TARP,DOE-2,477.00,212.00,137.80,74.20,6,1,0,Yes
 Zone Information, MULT_CLASS_1_POD_2_ZN_1_FLR_1,0.0,-53.00,30.00,0.00,-26.50,34.50,2.00,1,1,1,-53.00,0.00,30.00,39.00,0.00,4.00,4.00,1908.00,TARP,DOE-2,477.00,212.00,137.80,74.20,6,1,0,Yes
 Zone Information, MULT_CLASS_1_POD_3_ZN_1_FLR_1,0.0,-53.00,61.00,0.00,-26.50,65.50,2.00,1,1,1,-53.00,0.00,61.00,70.00,0.00,4.00,4.00,1908.00,TARP,DOE-2,477.00,212.00,137.80,74.20,6,1,0,Yes
 Zone Information, MULT_CLASS_2_POD_1_ZN_1_FLR_1,0.0,-53.00,12.00,0.00,-26.50,16.50,2.00,1,1,1,-53.00,0.00,12.00,21.00,0.00,4.00,4.00,1908.00,TARP,DOE-2,477.00,212.00,137.80,74.20,6,1,0,Yes
 Zone Information, MULT_CLASS_2_POD_2_ZN_1_FLR_1,0.0,-53.00,42.00,0.00,-26.50,46.50,2.00,1,1,1,-53.00,0.00,42.00,51.00,0.00,4.00,4.00,1908.00,TARP,DOE-2,477.00,212.00,137.80,74.20,6,1,0,Yes
 Zone Information, MULT_CLASS_2_POD_3_ZN_1_FLR_1,0.0,-53.00,73.00,0.00,-35.50,77.50,2.00,1,1,1,-53.00,-18.00,73.00,82.00,0.00,4.00,4.00,1260.00,TARP,DOE-2,315.00,140.00,91.00,49.00,6,1,0,Yes
 Zone Information, OFFICES_ZN_1_FLR_1,0.0,19.00,0.00,0.00,29.50,10.50,2.00,1,1,1,19.00,40.00,0.00,21.00,0.00,4.00,4.00,1764.00,TARP,DOE-2,441.00,168.00,109.20,58.80,7,2,0,Yes
! <Zone Internal Gains Nominal>,Zone Name, Floor Area {m2},# Occupants,Area per Occupant {m2/person},Occupant per Area {person/m2},Interior Lighting {W/m2},Electric Load {W/m2},Gas Load {W/m2},Other Load {W/m2},Hot Water Eq {W/m2},Steam Equipment {W/m2},Sum Loads per Area {W/m2},Outdoor Controlled Baseboard Heat
 Zone Internal Gains Nominal, BATH_ZN_1_FLR_1,190.00,19.0,10.000,0.100,9.680,4.000,0.000,0.000,0.000,0.000,13.680,No
 Zone Internal Gains Nominal, CAFETERIA_ZN_1_FLR_1,315.00,226.6,1.390,0.719,15.060,25.390,0.000,0.000,0.000,0.000,40.450,No
 Zone Internal Gains Nominal, COMPUTER_CLASS_ZN_1_FLR_1,162.00,48.6,3.330,0.300,15.060,20.000,0.000,0.000,0.000,0.000,35.060,No
 Zone Internal Gains Nominal, CORNER_CLASS_1_POD_1_ZN_1_FLR_1,99.00,24.8,4.000,0.250,15.060,15.000,0.000,0.000,0.000,0.000,30.060,No
 Zone Internal Gains Nominal, CORNER_CLASS_1_POD_2_ZN_1_FLR_1,99.00,24.8,4.000,0.250,15.060,15.000,0.000,0.000,0.000,0.000,30.060,No
 Zone Internal Gains Nominal, CORNER_CLASS_1_POD_3_ZN_1_FLR_1,99.00,24.8,4.000,0.250,15.060,15.000,0.000,0.000,0.000,0.000,30.060,No
 Zone Internal Gains Nominal, CORNER_CLASS_2_POD_1_ZN_1_FLR_1,99.00,24.8,4.000,0.250,15.060,15.000,0.000,0.000,0.000,0.000,30.060,No
 Zone Internal Gains Nominal, CORNER_CLASS_2_POD_2_ZN_1_FLR_1,99.00,24.8,4.000,0.250,15.060,15.000,0.000,0.000,0.000,0.000,30.060,No
 Zone Internal Gains Nominal, CORNER_CLASS_2_POD_3_ZN_1_FLR_1,99.00,24.8,4.000,0.250,15.060,15.000,0.000,0.000,0.000,0.000,30.060,No
 Zone Internal Gains Nominal, CORRIDOR_POD_1_ZN_1_FLR_1,192.00,19.2,10.000,0.100,5.380,4.000,0.000,0.000,0.000,0.000,9.380,No
 Zone Internal Gains Nominal, CORRIDOR_POD_2_ZN_1_FLR_1,192.00,19.2,10.000,0.100,5.380,4.000,0.000,0.000,0.000,0.000,9.380,No
 Zone Internal Gains Nominal, CORRIDOR_POD_3_ZN_1_FLR_1,192.00,19.2,10.000,0.100,5.380,4.000,0.000,0.000,0.000,0.000,9.380,No
 Zone Internal Gains Nominal, GYM_ZN_1_FLR_1,357.00,107.2,3.330,0.300,15.060,5.000,0.000,0.000,0.000,0.000,20.060,No
 Zone Internal Gains Nominal, KITCHEN_ZN_1_FLR_1,168.00,25.2,6.667,0.150,12.910,193.881,954.071,0.000,0.000,0.000,1160.862,No
 Zone Internal Gains Nominal, LIBRARY_MEDIA_CENTER_ZN_1_FLR_1,399.00,91.7,4.350,0.230,13.990,15.000,0.000,0.000,0.000,0.000,28.990,No
 Zone Internal Gains Nominal, LOBBY_ZN_1_FLR_1,171.00,0.0,N/A,0.000,13.990,4.000,0.000,0.000,0.000,0.000,17.990,No
 Zone Internal Gains Nominal, MAIN_CORRIDOR_ZN_1_FLR_1,546.00,54.6,10.000,0.100,5.380,4.000,0.000,0.000,0.000,0.000,9.380,No
 Zone Internal Gains Nominal, MECH_ZN_1_FLR_1,252.00,0.0,N/A,0.000,16.140,4.000,0.000,0.000,0.000,0.000,20.140,No
 Zone Internal Gains Nominal, MULT_CLASS_1_POD_1_ZN_1_FLR_1,477.00,119.3,4.000,0.250,15.060,15.000,0.000,0.000,0.000,0.000,30.060,No
 Zone Internal Gains Nominal, MULT_CLASS_1_POD_2_ZN_1_FLR_1,477.00,119.3,4.000,0.250,15.060,15.000,0.000,0.000,0.000,0.000,30.060,No
 Zone Internal Gains Nominal, MULT_CLASS_1_POD_3_ZN_1_FLR_1,477.00,119.3,4.000,0.250,15.060,15.000,0.000,0.000,0.000,0.000,30.060,No
 Zone Internal Gains Nominal, MULT_CLASS_2_POD_1_ZN_1_FLR_1,477.00,119.3,4.000,0.250,15.060,15.000,0.000,0.000,0.000,0.000,30.060,No
 Zone Internal Gains Nominal, MULT_CLASS_2_POD_2_ZN_1_FLR_1,477.00,119.3,4.000,0.250,15.060,15.000,0.000,0.000,0.000,0.000,30.060,No
 Zone Internal Gains Nominal, MULT_CLASS_2_POD_3_ZN_1_FLR_1,315.00,78.8,4.000,0.250,15.060,15.000,0.000,0.000,0.000,0.000,30.060,No
 Zone Internal Gains Nominal, OFFICES_ZN_1_FLR_1,441.00,22.1,20.000,5.000E-002,11.840,10.800,0.000,0.000,0.000,0.000,22.640,No
! <People Internal Gains Nominal>,Name,Schedule Name,Zone Name,Zone Floor Area {m2},# Zone Occupants,Number of People {},People/Floor Area {person/m2},Floor Area per person {m2/person},Fraction Radiant,Fraction Convected,Sensible Fraction Calculation,Activity level,ASHRAE 55 Warnings,Carbon Dioxide Generation Rate,Nominal Minimum Number of People,Nominal Maximum Number of People,MRT Calculation Type,Work Efficiency, Clothing Insulation Calculation Method,Clothing Insulation Calculation Method Schedule,Clothing,Air Velocity,Fanger Calculation,Pierce Calculation,KSU Calculation
 People Internal Gains Nominal, BATH_ZN_1_FLR_1 PEOPLE,BLDG_OCC_SCH,BATH_ZN_1_FLR_1,190.00,19.0,19.0,0.100,10.000,0.300,0.700,AutoCalculate,ACTIVITY_SCH,No,3.8200E-008,0,14,Zone Averaged,WORK_EFF_SCH,Clothing Insulation Schedule,N/A,CLOTHING_SCH,AIR_VELO_SCH,Yes,No,No
 People Internal Gains Nominal, CAFETERIA_ZN_1_FLR_1 PEOPLE,BLDG_OCC_SCH_CAFETERIA,CAFETERIA_ZN_1_FLR_1,315.00,226.6,226.6,0.719,1.390,0.300,0.700,AutoCalculate,ACTIVITY_SCH,No,3.8200E-008,0,215,Zone Averaged,WORK_EFF_SCH,Clothing Insulation Schedule,N/A,CLOTHING_SCH,AIR_VELO_SCH,Yes,No,No
 People Internal Gains Nominal, COMPUTER_CLASS_ZN_1_FLR_1 PEOPLE,BLDG_OCC_SCH,COMPUTER_CLASS_ZN_1_FLR_1,162.00,48.6,48.6,0.300,3.330,0.300,0.700,AutoCalculate,ACTIVITY_SCH,No,3.8200E-008,0,36,Zone Averaged,WORK_EFF_SCH,Clothing Insulation Schedule,N/A,CLOTHING_SCH,AIR_VELO_SCH,Yes,No,No
 People Internal Gains Nominal, CORNER_CLASS_1_POD_1_ZN_1_FLR_1 PEOPLE,BLDG_OCC_SCH,CORNER_CLASS_1_POD_1_ZN_1_FLR_1,99.00,24.8,24.8,0.250,4.000,0.300,0.700,AutoCalculate,ACTIVITY_SCH,No,3.8200E-008,0,19,Zone Averaged,WORK_EFF_SCH,Clothing Insulation Schedule,N/A,CLOTHING_SCH,AIR_VELO_SCH,Yes,No,No
 People Internal Gains Nominal, CORNER_CLASS_1_POD_2_ZN_1_FLR_1 PEOPLE,BLDG_OCC_SCH,CORNER_CLASS_1_POD_2_ZN_1_FLR_1,99.00,24.8,24.8,0.250,4.000,0.300,0.700,AutoCalculate,ACTIVITY_SCH,No,3.8200E-008,0,19,Zone Averaged,WORK_EFF_SCH,Clothing Insulation Schedule,N/A,CLOTHING_SCH,AIR_VELO_SCH,Yes,No,No
 People Internal Gains Nominal, CORNER_CLASS_1_POD_3_ZN_1_FLR_1 PEOPLE,BLDG_OCC_SCH,CORNER_CLASS_1_POD_3_ZN_1_FLR_1,99.00,24.8,24.8,0.250,4.000,0.300,0.700,AutoCalculate,ACTIVITY_SCH,No,3.8200E-008,0,19,Zone Averaged,WORK_EFF_SCH,Clothing Insulation Schedule,N/A,CLOTHING_SCH,AIR_VELO_SCH,Yes,No,No
 People Internal Gains Nominal, CORNER_CLASS_2_POD_1_ZN_1_FLR_1 PEOPLE,BLDG_OCC_SCH,CORNER_CLASS_2_POD_1_ZN_1_FLR_1,99.00,24.8,24.8,0.250,4.000,0.300,0.700,AutoCalculate,ACTIVITY_SCH,No,3.8200E-008,0,19,Zone Averaged,WORK_EFF_SCH,Clothing Insulation Schedule,N/A,CLOTHING_SCH,AIR_VELO_SCH,Yes,No,No
 People Internal Gains Nominal, CORNER_CLASS_2_POD_2_ZN_1_FLR_1 PEOPLE,BLDG_OCC_SCH,CORNER_CLASS_2_POD_2_ZN_1_FLR_1,99.00,24.8,24.8,0.250,4.000,0.300,0.700,AutoCalculate,ACTIVITY_SCH,No,3.8200E-008,0,19,Zone Averaged,WORK_EFF_SCH,Clothing Insulation Schedule,N/A,CLOTHING_SCH,AIR_VELO_SCH,Yes,No,No
 People Internal Gains Nominal, CORNER_CLASS_2_POD_3_ZN_1_FLR_1 PEOPLE,BLDG_OCC_SCH,CORNER_CLASS_2_POD_3_ZN_1_FLR_1,99.00,24.8,24.8,0.250,4.000,0.300,0.700,AutoCalculate,ACTIVITY_SCH,No,3.8200E-008,0,19,Zone Averaged,WORK_EFF_SCH,Clothing Insulation Schedule,N/A,CLOTHING_SCH,AIR_VELO_SCH,Yes,No,No
 People Internal Gains Nominal, CORRIDOR_POD_1_ZN_1_FLR_1 PEOPLE,BLDG_OCC_SCH,CORRIDOR_POD_1_ZN_1_FLR_1,192.00,19.2,19.2,0.100,10.000,0.300,0.700,AutoCalculate,ACTIVITY_SCH,No,3.8200E-008,0,14,Zone Averaged,WORK_EFF_SCH,Clothing Insulation Schedule,N/A,CLOTHING_SCH,AIR_VELO_SCH,Yes,No,No
 People Internal Gains Nominal, CORRIDOR_POD_2_ZN_1_FLR_1 PEOPLE,BLDG_OCC_SCH,CORRIDOR_POD_2_ZN_1_FLR_1,192.00,19.2,19.2,0.100,10.000,0.300,0.700,AutoCalculate,ACTIVITY_SCH,No,3.8200E-008,0,14,Zone Averaged,WORK_EFF_SCH,Clothing Insulation Schedule,N/A,CLOTHING_SCH,AIR_VELO_SCH,Yes,No,No
 People Internal Gains Nominal, CORRIDOR_POD_3_ZN_1_FLR_1 PEOPLE,BLDG_OCC_SCH,CORRIDOR_POD_3_ZN_1_FLR_1,192.00,19.2,19.2,0.100,10.000,0.300,0.700,AutoCalculate,ACTIVITY_SCH,No,3.8200E-008,0,14,Zone Averaged,WORK_EFF_SCH,Clothing Insulation Schedule,N/A,CLOTHING_SCH,AIR_VELO_SCH,Yes,No,No
 People Internal Gains Nominal, GYM_ZN_1_FLR_1 PEOPLE,BLDG_OCC_SCH_GYM,GYM_ZN_1_FLR_1,357.00,107.2,107.2,0.300,3.330,0.300,0.700,AutoCalculate,ACTIVITY_SCH,No,3.8200E-008,0,102,Zone Averaged,WORK_EFF_SCH,Clothing Insulation Schedule,N/A,CLOTHING_SCH,AIR_VELO_SCH,Yes,No,No
 People Internal Gains Nominal, KITCHEN_ZN_1_FLR_1 PEOPLE,BLDG_OCC_SCH,KITCHEN_ZN_1_FLR_1,168.00,25.2,25.2,0.150,6.667,0.300,0.700,AutoCalculate,ACTIVITY_SCH,No,3.8200E-008,0,19,Zone Averaged,WORK_EFF_SCH,Clothing Insulation Schedule,N/A,CLOTHING_SCH,AIR_VELO_SCH,Yes,No,No
 People Internal Gains Nominal, LIBRARY_MEDIA_CENTER_ZN_1_FLR_1 PEOPLE,BLDG_OCC_SCH,LIBRARY_MEDIA_CENTER_ZN_1_FLR_1,399.00,91.7,91.7,0.230,4.350,0.300,0.700,AutoCalculate,ACTIVITY_SCH,No,3.8200E-008,0,69,Zone Averaged,WORK_EFF_SCH,Clothing Insulation Schedule,N/A,CLOTHING_SCH,AIR_VELO_SCH,Yes,No,No
 People Internal Gains Nominal, MAIN_CORRIDOR_ZN_1_FLR_1 PEOPLE,BLDG_OCC_SCH,MAIN_CORRIDOR_ZN_1_FLR_1,546.00,54.6,54.6,0.100,10.000,0.300,0.700,AutoCalculate,ACTIVITY_SCH,No,3.8200E-008,0,41,Zone Averaged,WORK_EFF_SCH,Clothing Insulation Schedule,N/A,CLOTHING_SCH,AIR_VELO_SCH,Yes,No,No
 People Internal Gains Nominal, MULT_CLASS_1_POD_1_ZN_1_FLR_1 PEOPLE,BLDG_OCC_SCH,MULT_CLASS_1_POD_1_ZN_1_FLR_1,477.00,119.3,119.3,0.250,4.000,0.300,0.700,AutoCalculate,ACTIVITY_SCH,No,3.8200E-008,0,89,Zone Averaged,WORK_EFF_SCH,Clothing Insulation Schedule,N/A,CLOTHING_SCH,AIR_VELO_SCH,Yes,No,No
 People Internal Gains Nominal, MULT_CLASS_1_POD_2_ZN_1_FLR_1 PEOPLE,BLDG_OCC_SCH,MULT_CLASS_1_POD_2_ZN_1_FLR_1,477.00,119.3,119.3,0.250,4.000,0.300,0.700,AutoCalculate,ACTIVITY_SCH,No,3.8200E-008,0,89,Zone Averaged,WORK_EFF_SCH,Clothing Insulation Schedule,N/A,CLOTHING_SCH,AIR_VELO_SCH,Yes,No,No
 People Internal Gains Nominal, MULT_CLASS_1_POD_3_ZN_1_FLR_1 PEOPLE,BLDG_OCC_SCH,MULT_CLASS_1_POD_3_ZN_1_FLR_1,477.00,119.3,119.3,0.250,4.000,0.300,0.700,AutoCalculate,ACTIVITY_SCH,No,3.8200E-008,0,89,Zone Averaged,WORK_EFF_SCH,Clothing Insulation Schedule,N/A,CLOTHING_SCH,AIR_VELO_SCH,Yes,No,No
 People Internal Gains Nominal, MULT_CLASS_2_POD_1_ZN_1_FLR_1 PEOPLE,BLDG_OCC_SCH,MULT_CLASS_2_POD_1_ZN_1_FLR_1,477.00,119.3,119.3,0.250,4.000,0.300,0.700,AutoCalculate,ACTIVITY_SCH,No,3.8200E-008,0,89,Zone Averaged,WORK_EFF_SCH,Clothing Insulation Schedule,N/A,CLOTHING_SCH,AIR_VELO_SCH,Yes,No,No
 People Internal Gains Nominal, MULT_CLASS_2_POD_2_ZN_1_FLR_1 PEOPLE,BLDG_OCC_SCH,MULT_CLASS_2_POD_2_ZN_1_FLR_1,477.00,119.3,119.3,0.250,4.000,0.300,0.700,AutoCalculate,ACTIVITY_SCH,No,3.8200E-008,0,89,Zone Averaged,WORK_EFF_SCH,Clothing Insulation Schedule,N/A,CLOTHING_SCH,AIR_VELO_SCH,Yes,No,No
 People Internal Gains Nominal, MULT_CLASS_2_POD_3_ZN_1_FLR_1 PEOPLE,BLDG_OCC_SCH,MULT_CLASS_2_POD_3_ZN_1_FLR_1,315.00,78.8,78.8,0.250,4.000,0.300,0.700,AutoCalculate,ACTIVITY_SCH,No,3.8200E-008,0,59,Zone Averaged,WORK_EFF_SCH,Clothing Insulation Schedule,N/A,CLOTHING_SCH,AIR_VELO_SCH,Yes,No,No
 People Internal Gains Nominal, OFFICES_ZN_1_FLR_1 PEOPLE,BLDG_OCC_SCH_OFFICES,OFFICES_ZN_1_FLR_1,441.00,22.1,22.1,5.000E-002,20.000,0.300,0.700,AutoCalculate,ACTIVITY_SCH,No,3.8200E-008,0,21,Zone Averaged,WORK_EFF_SCH,Clothing Insulation Schedule,N/A,CLOTHING_SCH,AIR_VELO_SCH,Yes,No,No
! <Lights Internal Gains Nominal>,Name,Schedule Name,Zone Name,Zone Floor Area {m2},# Zone Occupants,Lighting Level {W},Lights/Floor Area {W/m2},Lights per person {W/person},Fraction Return Air,Fraction Radiant,Fraction Short Wave,Fraction Convected,Fraction Replaceable,End-Use Category,Nominal Minimum Lighting Level {W},Nominal Maximum Lighting Level {W}
 Lights Internal Gains Nominal, BATH_ZN_1_FLR_1_LIGHTS,BLDG_LIGHT_SCH,BATH_ZN_1_FLR_1,190.00,19.0,1839.200,9.680,96.800,0.000,0.370,0.200,0.430,1.000,General,326.090,1655.280
 Lights Internal Gains Nominal, CAFETERIA_ZN_1_FLR_1_LIGHTS,BLDG_LIGHT_SCH,CAFETERIA_ZN_1_FLR_1,315.00,226.6,4743.900,15.060,20.933,0.000,0.370,0.200,0.430,1.000,General,841.093,4269.510
 Lights Internal Gains Nominal, COMPUTER_CLASS_ZN_1_FLR_1_LIGHTS,BLDG_LIGHT_SCH,COMPUTER_CLASS_ZN_1_FLR_1,162.00,48.6,2439.720,15.060,50.150,0.000,0.370,0.200,0.430,1.000,General,432.562,2195.748
 Lights Internal Gains Nominal, CORNER_CLASS_1_POD_1_ZN_1_FLR_1_LIGHTS,BLDG_LIGHT_SCH,CORNER_CLASS_1_POD_1_ZN_1_FLR_1,99.00,24.8,1490.940,15.060,60.240,0.000,0.370,0.200,0.430,1.000,General,264.344,1341.846
 Lights Internal Gains Nominal, CORNER_CLASS_1_POD_2_ZN_1_FLR_1_LIGHTS,BLDG_LIGHT_SCH,CORNER_CLASS_1_POD_2_ZN_1_FLR_1,99.00,24.8,1490.940,15.060,60.240,0.000,0.370,0.200,0.430,1.000,General,264.344,1341.846
 Lights Internal Gains Nominal, CORNER_CLASS_1_POD_3_ZN_1_FLR_1_LIGHTS,BLDG_LIGHT_SCH,CORNER_CLASS_1_POD_3_ZN_1_FLR_1,99.00,24.8,1490.940,15.060,60.240,0.000,0.370,0.200,0.430,1.000,General,264.344,1341.846
 Lights Internal Gains Nominal, CORNER_CLASS_2_POD_1_ZN_1_FLR_1_LIGHTS,BLDG_LIGHT_SCH,CORNER_CLASS_2_POD_1_ZN_1_FLR_1,99.00,24.8,1490.940,15.060,60.240,0.000,0.370,0.200,0.430,1.000,General,264.344,1341.846
 Lights Internal Gains Nominal, CORNER_CLASS_2_POD_2_ZN_1_FLR_1_LIGHTS,BLDG_LIGHT_SCH,CORNER_CLASS_2_POD_2_ZN_1_FLR_1,99.00,24.8,1490.940,15.060,60.240,0.000,0.370,0.200,0.430,1.000,General,264.344,1341.846
 Lights Internal Gains Nominal, CORNER_CLASS_2_POD_3_ZN_1_FLR_1_LIGHTS,BLDG_LIGHT_SCH,CORNER_CLASS_2_POD_3_ZN_1_FLR_1,99.00,24.8,1490.940,15.060,60.240,0.000,0.370,0.200,0.430,1.000,General,264.344,1341.846
 Lights Internal Gains Nominal, CORRIDOR_POD_1_ZN_1_FLR_1_LIGHTS,BLDG_LIGHT_SCH,CORRIDOR_POD_1_ZN_1_FLR_1,192.00,19.2,1032.960,5.380,53.800,0.000,0.370,0.200,0.430,1.000,General,183.144,929.664
 Lights Internal Gains Nominal, CORRIDOR_POD_2_ZN_1_FLR_1_LIGHTS,BLDG_LIGHT_SCH,CORRIDOR_POD_2_ZN_1_FLR_1,192.00,19.2,1032.960,5.380,53.800,0.000,0.370,0.200,0.430,1.000,General,183.144,929.664
 Lights Internal Gains Nominal, CORRIDOR_POD_3_ZN_1_FLR_1_LIGHTS,BLDG_LIGHT_SCH,CORRIDOR_POD_3_ZN_1_FLR_1,192.00,19.2,1032.960,5.380,53.800,0.000,0.370,0.200,0.430,1.000,General,183.144,929.664
 Lights Internal Gains Nominal, GYM_ZN_1_FLR_1_LIGHTS,BLDG_LIGHT_SCH,GYM_ZN_1_FLR_1,357.00,107.2,5376.420,15.060,50.150,0.000,0.370,0.200,0.430,1.000,General,953.239,4838.778
 Lights Internal Gains Nominal, KITCHEN_ZN_1_FLR_1_LIGHTS,BLDG_LIGHT_SCH,KITCHEN_ZN_1_FLR_1,168.00,25.2,2168.880,12.910,86.067,0.000,0.370,0.200,0.430,1.000,General,384.542,1951.992
 Lights Internal Gains Nominal, LIBRARY_MEDIA_CENTER_ZN_1_FLR_1_LIGHTS,BLDG_LIGHT_SCH,LIBRARY_MEDIA_CENTER_ZN_1_FLR_1,399.00,91.7,5582.010,13.990,60.857,0.000,0.370,0.200,0.430,1.000,General,989.690,5023.809
 Lights Internal Gains Nominal, LOBBY_ZN_1_FLR_1_LIGHTS,BLDG_LIGHT_SCH,LOBBY_ZN_1_FLR_1,171.00,0.0,2392.290,13.990,N/A,0.000,0.370,0.200,0.430,1.000,General,424.153,2153.061
 Lights Internal Gains Nominal, MAIN_CORRIDOR_ZN_1_FLR_1_LIGHTS,BLDG_LIGHT_SCH,MAIN_CORRIDOR_ZN_1_FLR_1,546.00,54.6,2937.480,5.380,53.800,0.000,0.370,0.200,0.430,1.000,General,520.815,2643.732
 Lights Internal Gains Nominal, MECH_ZN_1_FLR_1_LIGHTS,BLDG_LIGHT_SCH,MECH_ZN_1_FLR_1,252.00,0.0,4067.280,16.140,N/A,0.000,0.370,0.200,0.430,1.000,General,721.129,3660.552
 Lights Internal Gains Nominal, MULT_CLASS_1_POD_1_ZN_1_FLR_1_LIGHTS,BLDG_LIGHT_SCH,MULT_CLASS_1_POD_1_ZN_1_FLR_1,477.00,119.3,7183.620,15.060,60.240,0.000,0.370,0.200,0.430,1.000,General,1273.656,6465.258
 Lights Internal Gains Nominal, MULT_CLASS_1_POD_2_ZN_1_FLR_1_LIGHTS,BLDG_LIGHT_SCH,MULT_CLASS_1_POD_2_ZN_1_FLR_1,477.00,119.3,7183.620,15.060,60.240,0.000,0.370,0.200,0.430,1.000,General,1273.656,6465.258
 Lights Internal Gains Nominal, MULT_CLASS_1_POD_3_ZN_1_FLR_1_LIGHTS,BLDG_LIGHT_SCH,MULT_CLASS_1_POD_3_ZN_1_FLR_1,477.00,119.3,7183.620,15.060,60.240,0.000,0.370,0.200,0.430,1.000,General,1273.656,6465.258
 Lights Internal Gains Nominal, MULT_CLASS_2_POD_1_ZN_1_FLR_1_LIGHTS,BLDG_LIGHT_SCH,MULT_CLASS_2_POD_1_ZN_1_FLR_1,477.00,119.3,7183.620,15.060,60.240,0.000,0.370,0.200,0.430,1.000,General,1273.656,6465.258
 Lights Internal Gains Nominal, MULT_CLASS_2_POD_2_ZN_1_FLR_1_LIGHTS,BLDG_LIGHT_SCH,MULT_CLASS_2_POD_2_ZN_1_FLR_1,477.00,119.3,7183.620,15.060,60.240,0.000,0.370,0.200,0.430,1.000,General,1273.656,6465.258
 Lights Internal Gains Nominal, MULT_CLASS_2_POD_3_ZN_1_FLR_1_LIGHTS,BLDG_LIGHT_SCH,MULT_CLASS_2_POD_3_ZN_1_FLR_1,315.00,78.8,4743.900,15.060,60.240,0.000,0.370,0.200,0.430,1.000,General,841.093,4269.510
 Lights Internal Gains Nominal, OFFICES_ZN_1_FLR_1_LIGHTS,BLDG_LIGHT_SCH,OFFICES_ZN_1_FLR_1,441.00,22.1,5221.440,11.840,236.800,0.000,0.370,0.200,0.430,1.000,General,925.761,4699.296
! <ElectricEquipment Internal Gains Nominal>,Name,Schedule Name,Zone Name,Zone Floor Area {m2},# Zone Occupants,Equipment Level {W},Equipment/Floor Area {W/m2},Equipment per person {W/person},Fraction Latent,Fraction Radiant,Fraction Lost,Fraction Convected,End-Use SubCategory,Nominal Minimum Equipment Level {W},Nominal Maximum Equipment Level {W}
 ElectricEquipment Internal Gains Nominal, BATH_ZN_1_FLR_1_PLUGMISC_EQUIP,BLDG_EQUIP_SCH,BATH_ZN_1_FLR_1,190.00,19.0,760.000,4.000,40.000,0.000,0.500,0.000,0.500,General,190.000,722.000
 ElectricEquipment Internal Gains Nominal, CAFETERIA_ZN_1_FLR_1_PLUGMISC_EQUIP,KITCHEN_ELEC_EQUIP_SCH,CAFETERIA_ZN_1_FLR_1,315.00,226.6,7997.850,25.390,35.292,0.000,0.500,0.000,0.500,General,799.785,1999.463
 ElectricEquipment Internal Gains Nominal, COMPUTER_CLASS_ZN_1_FLR_1_PLUGMISC_EQUIP,BLDG_EQUIP_SCH,COMPUTER_CLASS_ZN_1_FLR_1,162.00,48.6,3240.000,20.000,66.600,0.000,0.500,0.000,0.500,General,810.000,3078.000
 ElectricEquipment Internal Gains Nominal, CORNER_CLASS_1_POD_1_ZN_1_FLR_1_PLUGMISC_EQUIP,BLDG_EQUIP_SCH,CORNER_CLASS_1_POD_1_ZN_1_FLR_1,99.00,24.8,1485.000,15.000,60.000,0.000,0.500,0.000,0.500,General,371.250,1410.750
 ElectricEquipment Internal Gains Nominal, CORNER_CLASS_1_POD_2_ZN_1_FLR_1_PLUGMISC_EQUIP,BLDG_EQUIP_SCH,CORNER_CLASS_1_POD_2_ZN_1_FLR_1,99.00,24.8,1485.000,15.000,60.000,0.000,0.500,0.000,0.500,General,371.250,1410.750
 ElectricEquipment Internal Gains Nominal, CORNER_CLASS_1_POD_3_ZN_1_FLR_1_PLUGMISC_EQUIP,BLDG_EQUIP_SCH,CORNER_CLASS_1_POD_3_ZN_1_FLR_1,99.00,24.8,1485.000,15.000,60.000,0.000,0.500,0.000,0.500,General,371.250,1410.750
 ElectricEquipment Internal Gains Nominal, CORNER_CLASS_2_POD_1_ZN_1_FLR_1_PLUGMISC_EQUIP,BLDG_EQUIP_SCH,CORNER_CLASS_2_POD_1_ZN_1_FLR_1,99.00,24.8,1485.000,15.000,60.000,0.000,0.500,0.000,0.500,General,371.250,1410.750
 ElectricEquipment Internal Gains Nominal, CORNER_CLASS_2_POD_2_ZN_1_FLR_1_PLUGMISC_EQUIP,BLDG_EQUIP_SCH,CORNER_CLASS_2_POD_2_ZN_1_FLR_1,99.00,24.8,1485.000,15.000,60.000,0.000,0.500,0.000,0.500,General,371.250,1410.750
 ElectricEquipment Internal Gains Nominal, CORNER_CLASS_2_POD_3_ZN_1_FLR_1_PLUGMISC_EQUIP,BLDG_EQUIP_SCH,CORNER_CLASS_2_POD_3_ZN_1_FLR_1,99.00,24.8,1485.000,15.000,60.000,0.000,0.500,0.000,0.500,General,371.250,1410.750
 ElectricEquipment Internal Gains Nominal, CORRIDOR_POD_1_ZN_1_FLR_1_PLUGMISC_EQUIP,BLDG_EQUIP_SCH,CORRIDOR_POD_1_ZN_1_FLR_1,192.00,19.2,768.000,4.000,40.000,0.000,0.500,0.000,0.500,General,192.000,729.600
 ElectricEquipment Internal Gains Nominal, CORRIDOR_POD_2_ZN_1_FLR_1_PLUGMISC_EQUIP,BLDG_EQUIP_SCH,CORRIDOR_POD_2_ZN_1_FLR_1,192.00,19.2,768.000,4.000,40.000,0.000,0.500,0.000,0.500,General,192.000,729.600
 ElectricEquipment Internal Gains Nominal, CORRIDOR_POD_3_ZN_1_FLR_1_PLUGMISC_EQUIP,BLDG_EQUIP_SCH,CORRIDOR_POD_3_ZN_1_FLR_1,192.00,19.2,768.000,4.000,40.000,0.000,0.500,0.000,0.500,General,192.000,729.600
 ElectricEquipment Internal Gains Nominal, GYM_ZN_1_FLR_1_PLUGMISC_EQUIP,BLDG_EQUIP_SCH,GYM_ZN_1_FLR_1,357.00,107.2,1785.000,5.000,16.650,0.000,0.500,0.000,0.500,General,446.250,1695.750
 ElectricEquipment Internal Gains Nominal, KITCHEN_ZN_1_FLR_1_EXHFAN_EQUIP,KITCHEN_EXHAUST_SCH,KITCHEN_ZN_1_FLR_1,168.00,25.2,576.000,3.429,22.857,0.000,0.000,1.000,0.000,KitchenExhFan,0.000,576.000
 ElectricEquipment Internal Gains Nominal, KITCHEN_ZN_1_FLR_1_MISCELEC_EQUIP,KITCHEN_ELEC_EQUIP_SCH,KITCHEN_ZN_1_FLR_1,168.00,25.2,31996.000,190.452,1269.683,0.250,0.300,0.200,0.250,MiscElec,3199.600,7999.000
 ElectricEquipment Internal Gains Nominal, LIBRARY_MEDIA_CENTER_ZN_1_FLR_1_PLUGMISC_EQUIP,BLDG_EQUIP_SCH,LIBRARY_MEDIA_CENTER_ZN_1_FLR_1,399.00,91.7,5985.000,15.000,65.250,0.000,0.500,0.000,0.500,General,1496.250,5685.750
 ElectricEquipment Internal Gains Nominal, LOBBY_ZN_1_FLR_1_PLUGMISC_EQUIP,BLDG_EQUIP_SCH,LOBBY_ZN_1_FLR_1,171.00,0.0,684.000,4.000,N/A,0.000,0.500,0.000,0.500,General,171.000,649.800
 ElectricEquipment Internal Gains Nominal, MAIN_CORRIDOR_ZN_1_FLR_1_PLUGMISC_EQUIP,BLDG_EQUIP_SCH,MAIN_CORRIDOR_ZN_1_FLR_1,546.00,54.6,2184.000,4.000,40.000,0.000,0.500,0.000,0.500,General,546.000,2074.800
 ElectricEquipment Internal Gains Nominal, MECH_ZN_1_FLR_1_PLUGMISC_EQUIP,BLDG_EQUIP_SCH,MECH_ZN_1_FLR_1,252.00,0.0,1008.000,4.000,N/A,0.000,0.500,0.000,0.500,General,252.000,957.600
 ElectricEquipment Internal Gains Nominal, MULT_CLASS_1_POD_1_ZN_1_FLR_1_PLUGMISC_EQUIP,BLDG_EQUIP_SCH,MULT_CLASS_1_POD_1_ZN_1_FLR_1,477.00,119.3,7155.000,15.000,60.000,0.000,0.500,0.000,0.500,General,1788.750,6797.250
 ElectricEquipment Internal Gains Nominal, MULT_CLASS_1_POD_2_ZN_1_FLR_1_PLUGMISC_EQUIP,BLDG_EQUIP_SCH,MULT_CLASS_1_POD_2_ZN_1_FLR_1,477.00,119.3,7155.000,15.000,60.000,0.000,0.500,0.000,0.500,General,1788.750,6797.250
 ElectricEquipment Internal Gains Nominal, MULT_CLASS_1_POD_3_ZN_1_FLR_1_PLUGMISC_EQUIP,BLDG_EQUIP_SCH,MULT_CLASS_1_POD_3_ZN_1_FLR_1,477.00,119.3,7155.000,15.000,60.000,0.000,0.500,0.000,0.500,General,1788.750,6797.250
 ElectricEquipment Internal Gains Nominal, MULT_CLASS_2_POD_1_ZN_1_FLR_1_PLUGMISC_EQUIP,BLDG_EQUIP_SCH,MULT_CLASS_2_POD_1_ZN_1_FLR_1,477.00,119.3,7155.000,15.000,60.000,0.000,0.500,0.000,0.500,General,1788.750,6797.250
 ElectricEquipment Internal Gains Nominal, MULT_CLASS_2_POD_2_ZN_1_FLR_1_PLUGMISC_EQUIP,BLDG_EQUIP_SCH,MULT_CLASS_2_POD_2_ZN_1_FLR_1,477.00,119.3,7155.000,15.000,60.000,0.000,0.500,0.000,0.500,General,1788.750,6797.250
 ElectricEquipment Internal Gains Nominal, MULT_CLASS_2_POD_3_ZN_1_FLR_1_PLUGMISC_EQUIP,BLDG_EQUIP_SCH,MULT_CLASS_2_POD_3_ZN_1_FLR_1,315.00,78.8,4725.000,15.000,60.000,0.000,0.500,0.000,0.500,General,1181.250,4488.750
 ElectricEquipment Internal Gains Nominal, OFFICES_ZN_1_FLR_1_PLUGMISC_EQUIP,BLDG_EQUIP_SCH,OFFICES_ZN_1_FLR_1,441.00,22.1,4762.800,10.800,216.000,0.000,0.500,0.000,0.500,General,1190.700,4524.660
! <GasEquipment Internal Gains Nominal>,Name,Schedule Name,Zone Name,Zone Floor Area {m2},# Zone Occupants,Equipment Level {W},Equipment/Floor Area {W/m2},Equipment per person {W/person},Fraction Latent,Fraction Radiant,Fraction Lost,Fraction Convected,End-Use SubCategory,Nominal Minimum Equipment Level {W},Nominal Maximum Equipment Level {W}
 GasEquipment Internal Gains Nominal, KITCHEN_ZN_1_FLR_1_MISCGAS_EQUIP,KITCHEN_GAS_EQUIP_SCH,KITCHEN_ZN_1_FLR_1,168.00,25.2,160284.000,954.071,6360.476,0.100,0.200,0.700,0.000,MiscGas,3205.680,32056.800
! <Shadowing/Sun Position Calculations Annual Simulations>, Calculation Method, Value {days}, Allowable Number Figures in Shadow Overlap {}, Polygon Clipping Algorithm, Sky Diffuse Modeling Algorithm
Shadowing/Sun Position Calculations Annual Simulations,AverageOverDaysInFrequency,7,15000,SutherlandHodgman,SimpleSkyDiffuseModeling,InternalCalculation,No
! <#Refrigeration Compressor Racks>,Number of Refrigeration Compressor Racks
! <Refrigeration Compressor Rack>,Compressor Rack Name, # Refrigerated Cases Connected,# WalkIn Coolers Connected, Heat Rejection Location, Condenser Type, COP
!  <Refrigeration Case>,Refrigeration Case Number, Refrigeration Case Name,Zone Name,Zone Node #,Zone Node Name,Capacity (W/m),LHR,Temperature (C),Length (m),Fan (W/m),Installed Lighting (W/m),Anti-Sweat (W/m),Defrost (W/m)
#Refrigeration Compressor Racks, 2
 Refrigeration Compressor Rack,RACK1,1,0,Outdoors,Air-Cooled,1.500
   Refrigeration Case,1,KITCHEN_ZN_1_FLR_1_CASE:1_WALKINFREEZER,KITCHEN_ZN_1_FLR_1,181,KITCHEN_ZN_1_FLR_1 AIR NODE,734.0,0.10,-23.0,3.7,68.3,33.0,0.0,547.0
 Refrigeration Compressor Rack,RACK2,1,0,Outdoors,Air-Cooled,3.000
   Refrigeration Case,2,KITCHEN_ZN_1_FLR_1_CASE:2_SELFCONTAINEDDISPLAYCASE,KITCHEN_ZN_1_FLR_1,181,KITCHEN_ZN_1_FLR_1 AIR NODE,734.0,8.00E-002,2.0,3.7,55.0,33.0,0.0,0.0
! <Water Heater Information>,Type,Name,Volume {m3},Maximum Capacity {W},Standard Rated Recovery Efficiency, Standard Rated Energy Factor
! <ZoneInfiltration Airflow Stats Nominal>,Name,Schedule Name,Zone Name, Zone Floor Area {m2}, # Zone Occupants,Design Volume Flow Rate {m3/s},Volume Flow Rate/Floor Area {m3/s/m2},Volume Flow Rate/Exterior Surface Area {m3/s/m2},ACH - Air Changes per Hour,Equation A - Constant Term Coefficient {},Equation B - Temperature Term Coefficient {1/C},Equation C - Velocity Term Coefficient {s/m}, Equation D - Velocity Squared Term Coefficient {s2/m2}
 ZoneInfiltration Airflow Stats Nominal, BATH_ZN_1_FLR_1_INFILTRATION,INFIL_SCH,BATH_ZN_1_FLR_1,190.00,19.0,1.208E-002,6.358E-005,5.252E-005,5.722E-002,1.000,0.000,0.000,0.000
 ZoneInfiltration Airflow Stats Nominal, CAFETERIA_ZN_1_FLR_1_INFILTRATION,INFIL_SCH,CAFETERIA_ZN_1_FLR_1,315.00,226.6,4.349E-002,1.381E-004,9.475E-005,0.124,1.000,0.000,0.000,0.000
 ZoneInfiltration Airflow Stats Nominal, COMPUTER_CLASS_ZN_1_FLR_1_INFILTRATION,INFIL_SCH,COMPUTER_CLASS_ZN_1_FLR_1,162.00,48.6,2.174E-002,1.342E-004,9.292E-005,0.121,1.000,0.000,0.000,0.000
 ZoneInfiltration Airflow Stats Nominal, CORNER_CLASS_1_POD_1_ZN_1_FLR_1_INFILTRATION,INFIL_SCH,CORNER_CLASS_1_POD_1_ZN_1_FLR_1,99.00,24.8,2.416E-002,2.440E-004,1.350E-004,0.220,1.000,0.000,0.000,0.000
 ZoneInfiltration Airflow Stats Nominal, CORNER_CLASS_1_POD_2_ZN_1_FLR_1_INFILTRATION,INFIL_SCH,CORNER_CLASS_1_POD_2_ZN_1_FLR_1,99.00,24.8,2.416E-002,2.440E-004,1.350E-004,0.220,1.000,0.000,0.000,0.000
 ZoneInfiltration Airflow Stats Nominal, CORNER_CLASS_1_POD_3_ZN_1_FLR_1_INFILTRATION,INFIL_SCH,CORNER_CLASS_1_POD_3_ZN_1_FLR_1,99.00,24.8,2.416E-002,2.440E-004,1.350E-004,0.220,1.000,0.000,0.000,0.000
 ZoneInfiltration Airflow Stats Nominal, CORNER_CLASS_2_POD_1_ZN_1_FLR_1_INFILTRATION,INFIL_SCH,CORNER_CLASS_2_POD_1_ZN_1_FLR_1,99.00,24.8,2.416E-002,2.440E-004,1.350E-004,0.220,1.000,0.000,0.000,0.000
 ZoneInfiltration Airflow Stats Nominal, CORNER_CLASS_2_POD_2_ZN_1_FLR_1_INFILTRATION,INFIL_SCH,CORNER_CLASS_2_POD_2_ZN_1_FLR_1,99.00,24.8,2.416E-002,2.440E-004,1.350E-004,0.220,1.000,0.000,0.000,0.000
 ZoneInfiltration Airflow Stats Nominal, CORNER_CLASS_2_POD_3_ZN_1_FLR_1_INFILTRATION,INFIL_SCH,CORNER_CLASS_2_POD_3_ZN_1_FLR_1,99.00,24.8,2.416E-002,2.440E-004,1.350E-004,0.220,1.000,0.000,0.000,0.000
 ZoneInfiltration Airflow Stats Nominal, CORRIDOR_POD_1_ZN_1_FLR_1_INFILTRATION,INFIL_SCH,CORRIDOR_POD_1_ZN_1_FLR_1,192.00,19.2,3.624E-003,1.888E-005,1.776E-005,1.699E-002,1.000,0.000,0.000,0.000
 ZoneInfiltration Airflow Stats Nominal, CORRIDOR_POD_2_ZN_1_FLR_1_INFILTRATION,INFIL_SCH,CORRIDOR_POD_2_ZN_1_FLR_1,192.00,19.2,3.624E-003,1.888E-005,1.776E-005,1.699E-002,1.000,0.000,0.000,0.000
 ZoneInfiltration Airflow Stats Nominal, CORRIDOR_POD_3_ZN_1_FLR_1_INFILTRATION,INFIL_SCH,CORRIDOR_POD_3_ZN_1_FLR_1,192.00,19.2,3.624E-003,1.888E-005,1.776E-005,1.699E-002,1.000,0.000,0.000,0.000
 ZoneInfiltration Airflow Stats Nominal, GYM_ZN_1_FLR_1_INFILTRATION,INFIL_SCH,GYM_ZN_1_FLR_1,357.00,107.2,2.054E-002,5.752E-005,4.832E-005,5.177E-002,1.000,0.000,0.000,0.000
 ZoneInfiltration Airflow Stats Nominal, KITCHEN_ZN_1_FLR_1_INFILTRATION,INFIL_SCH,KITCHEN_ZN_1_FLR_1,168.00,25.2,9.664E-003,5.752E-005,4.832E-005,5.177E-002,1.000,0.000,0.000,0.000
 ZoneInfiltration Airflow Stats Nominal, LIBRARY_MEDIA_CENTER_ZN_1_FLR_1_INFILTRATION,INFIL_SCH,LIBRARY_MEDIA_CENTER_ZN_1_FLR_1,399.00,91.7,4.832E-002,1.211E-004,8.644E-005,0.109,1.000,0.000,0.000,0.000
 ZoneInfiltration Airflow Stats Nominal, LOBBY_ZN_1_FLR_1_INFILTRATION,INFIL_SCH,LOBBY_ZN_1_FLR_1,171.00,0.0,2.295E-002,1.342E-004,9.292E-005,0.121,1.000,0.000,0.000,0.000
 ZoneInfiltration Airflow Stats Nominal, MAIN_CORRIDOR_ZN_1_FLR_1_INFILTRATION,INFIL_SCH,MAIN_CORRIDOR_ZN_1_FLR_1,546.00,54.6,1.087E-002,1.991E-005,1.868E-005,1.792E-002,1.000,0.000,0.000,0.000
 ZoneInfiltration Airflow Stats Nominal, MULT_CLASS_1_POD_1_ZN_1_FLR_1_INFILTRATION,INFIL_SCH,MULT_CLASS_1_POD_1_ZN_1_FLR_1,477.00,119.3,6.402E-002,1.342E-004,9.292E-005,0.121,1.000,0.000,0.000,0.000
 ZoneInfiltration Airflow Stats Nominal, MULT_CLASS_1_POD_2_ZN_1_FLR_1_INFILTRATION,INFIL_SCH,MULT_CLASS_1_POD_2_ZN_1_FLR_1,477.00,119.3,6.402E-002,1.342E-004,9.292E-005,0.121,1.000,0.000,0.000,0.000
 ZoneInfiltration Airflow Stats Nominal, MULT_CLASS_1_POD_3_ZN_1_FLR_1_INFILTRATION,INFIL_SCH,MULT_CLASS_1_POD_3_ZN_1_FLR_1,477.00,119.3,6.402E-002,1.342E-004,9.292E-005,0.121,1.000,0.000,0.000,0.000
 ZoneInfiltration Airflow Stats Nominal, MULT_CLASS_2_POD_1_ZN_1_FLR_1_INFILTRATION,INFIL_SCH,MULT_CLASS_2_POD_1_ZN_1_FLR_1,477.00,119.3,6.402E-002,1.342E-004,9.292E-005,0.121,1.000,0.000,0.000,0.000
 ZoneInfiltration Airflow Stats Nominal, MULT_CLASS_2_POD_2_ZN_1_FLR_1_INFILTRATION,INFIL_SCH,MULT_CLASS_2_POD_2_ZN_1_FLR_1,477.00,119.3,6.402E-002,1.342E-004,9.292E-005,0.121,1.000,0.000,0.000,0.000
 ZoneInfiltration Airflow Stats Nominal, MULT_CLASS_2_POD_3_ZN_1_FLR_1_INFILTRATION,INFIL_SCH,MULT_CLASS_2_POD_3_ZN_1_FLR_1,315.00,78.8,4.228E-002,1.342E-004,9.292E-005,0.121,1.000,0.000,0.000,0.000
 ZoneInfiltration Airflow Stats Nominal, OFFICES_ZN_1_FLR_1_INFILTRATION,INFIL_SCH,OFFICES_ZN_1_FLR_1,441.00,22.1,5.074E-002,1.150E-004,8.331E-005,0.104,1.000,0.000,0.000,0.000
! <Mixing Airflow Stats Nominal>,Name,Schedule Name,Zone Name, Zone Floor Area {m2}, # Zone Occupants,Design Volume Flow Rate {m3/s},Volume Flow Rate/Floor Area {m3/s/m2},Volume Flow Rate/person Area {m3/s/person},ACH - Air Changes per Hour,From/Source Zone,Delta Temperature {C}
 Mixing Airflow Stats Nominal, KITCHEN_ZN_1_FLR_1 EXHAUST FANMIXING_0,HVACOPERATIONSCHD,KITCHEN_ZN_1_FLR_1,168.00,25.2,1.355,8.068E-003,5.379E-002,7.261,CAFETERIA_ZN_1_FLR_1,0.00
! <AirFlow Model>, Simple
 AirFlow Model, Simple
! <RoomAir Model>, Zone Name, Mixing/Mundt/UCSDDV/UCSDCV/UCSDUFI/UCSDUFE/User Defined
RoomAir Model,BATH_ZN_1_FLR_1,Mixing/Well-Stirred
RoomAir Model,CAFETERIA_ZN_1_FLR_1,Mixing/Well-Stirred
RoomAir Model,COMPUTER_CLASS_ZN_1_FLR_1,Mixing/Well-Stirred
RoomAir Model,CORNER_CLASS_1_POD_1_ZN_1_FLR_1,Mixing/Well-Stirred
RoomAir Model,CORNER_CLASS_1_POD_2_ZN_1_FLR_1,Mixing/Well-Stirred
RoomAir Model,CORNER_CLASS_1_POD_3_ZN_1_FLR_1,Mixing/Well-Stirred
RoomAir Model,CORNER_CLASS_2_POD_1_ZN_1_FLR_1,Mixing/Well-Stirred
RoomAir Model,CORNER_CLASS_2_POD_2_ZN_1_FLR_1,Mixing/Well-Stirred
RoomAir Model,CORNER_CLASS_2_POD_3_ZN_1_FLR_1,Mixing/Well-Stirred
RoomAir Model,CORRIDOR_POD_1_ZN_1_FLR_1,Mixing/Well-Stirred
RoomAir Model,CORRIDOR_POD_2_ZN_1_FLR_1,Mixing/Well-Stirred
RoomAir Model,CORRIDOR_POD_3_ZN_1_FLR_1,Mixing/Well-Stirred
RoomAir Model,GYM_ZN_1_FLR_1,Mixing/Well-Stirred
RoomAir Model,KITCHEN_ZN_1_FLR_1,Mixing/Well-Stirred
RoomAir Model,LIBRARY_MEDIA_CENTER_ZN_1_FLR_1,Mixing/Well-Stirred
RoomAir Model,LOBBY_ZN_1_FLR_1,Mixing/Well-Stirred
RoomAir Model,MAIN_CORRIDOR_ZN_1_FLR_1,Mixing/Well-Stirred
RoomAir Model,MECH_ZN_1_FLR_1,Mixing/Well-Stirred
RoomAir Model,MULT_CLASS_1_POD_1_ZN_1_FLR_1,Mixing/Well-Stirred
RoomAir Model,MULT_CLASS_1_POD_2_ZN_1_FLR_1,Mixing/Well-Stirred
RoomAir Model,MULT_CLASS_1_POD_3_ZN_1_FLR_1,Mixing/Well-Stirred
RoomAir Model,MULT_CLASS_2_POD_1_ZN_1_FLR_1,Mixing/Well-Stirred
RoomAir Model,MULT_CLASS_2_POD_2_ZN_1_FLR_1,Mixing/Well-Stirred
RoomAir Model,MULT_CLASS_2_POD_3_ZN_1_FLR_1,Mixing/Well-Stirred
RoomAir Model,OFFICES_ZN_1_FLR_1,Mixing/Well-Stirred
! <AirflowNetwork Model:Control>, No Multizone or Distribution/Multizone with Distribution/Multizone without Distribution/Multizone with Distribution only during Fan Operation
AirflowNetwork Model:Control,NoMultizoneOrDistribution
! <Zone Volume Capacitance Multiplier>, Sensible Heat Capacity Multiplier, Moisture Capacity Multiplier, Carbon Dioxide Capacity Multiplier, Generic Contaminant Capacity Multiplier
Zone Volume Capacitance Multiplier,   1.000 ,   1.000,   1.000,   1.000
! <Load Timesteps in Zone Design Calculation Averaging Window>, Value
 Load Timesteps in Zone Design Calculation Averaging Window,    6
! <Heating Sizing Factor Information>, Sizing Factor ID, Value
 Heating Sizing Factor Information, Global,   1.5000    
 Heating Sizing Factor Information, Zone BATH_ZN_1_FLR_1,   1.5000    
 Heating Sizing Factor Information, Zone CAFETERIA_ZN_1_FLR_1,   1.5000    
 Heating Sizing Factor Information, Zone COMPUTER_CLASS_ZN_1_FLR_1,   1.5000    
 Heating Sizing Factor Information, Zone CORNER_CLASS_1_POD_1_ZN_1_FLR_1,   1.5000    
 Heating Sizing Factor Information, Zone CORNER_CLASS_1_POD_2_ZN_1_FLR_1,   1.5000    
 Heating Sizing Factor Information, Zone CORNER_CLASS_1_POD_3_ZN_1_FLR_1,   1.5000    
 Heating Sizing Factor Information, Zone CORNER_CLASS_2_POD_1_ZN_1_FLR_1,   1.5000    
 Heating Sizing Factor Information, Zone CORNER_CLASS_2_POD_2_ZN_1_FLR_1,   1.5000    
 Heating Sizing Factor Information, Zone CORNER_CLASS_2_POD_3_ZN_1_FLR_1,   1.5000    
 Heating Sizing Factor Information, Zone CORRIDOR_POD_1_ZN_1_FLR_1,   1.5000    
 Heating Sizing Factor Information, Zone CORRIDOR_POD_2_ZN_1_FLR_1,   1.5000    
 Heating Sizing Factor Information, Zone CORRIDOR_POD_3_ZN_1_FLR_1,   1.5000    
 Heating Sizing Factor Information, Zone GYM_ZN_1_FLR_1,   1.5000    
 Heating Sizing Factor Information, Zone KITCHEN_ZN_1_FLR_1,   1.5000    
 Heating Sizing Factor Information, Zone LIBRARY_MEDIA_CENTER_ZN_1_FLR_1,   1.5000    
 Heating Sizing Factor Information, Zone LOBBY_ZN_1_FLR_1,   1.5000    
 Heating Sizing Factor Information, Zone MAIN_CORRIDOR_ZN_1_FLR_1,   1.5000    
 Heating Sizing Factor Information, Zone MECH_ZN_1_FLR_1,   1.5000    
 Heating Sizing Factor Information, Zone MULT_CLASS_1_POD_1_ZN_1_FLR_1,   1.5000    
 Heating Sizing Factor Information, Zone MULT_CLASS_1_POD_2_ZN_1_FLR_1,   1.5000    
 Heating Sizing Factor Information, Zone MULT_CLASS_1_POD_3_ZN_1_FLR_1,   1.5000    
 Heating Sizing Factor Information, Zone MULT_CLASS_2_POD_1_ZN_1_FLR_1,   1.5000    
 Heating Sizing Factor Information, Zone MULT_CLASS_2_POD_2_ZN_1_FLR_1,   1.5000    
 Heating Sizing Factor Information, Zone MULT_CLASS_2_POD_3_ZN_1_FLR_1,   1.5000    
 Heating Sizing Factor Information, Zone OFFICES_ZN_1_FLR_1,   1.5000    
! <Cooling Sizing Factor Information>, Sizing Factor ID, Value
 Cooling Sizing Factor Information, Global,   1.5000    
 Cooling Sizing Factor Information, Zone BATH_ZN_1_FLR_1,   1.5000    
 Cooling Sizing Factor Information, Zone CAFETERIA_ZN_1_FLR_1,   1.5000    
 Cooling Sizing Factor Information, Zone COMPUTER_CLASS_ZN_1_FLR_1,   1.5000    
 Cooling Sizing Factor Information, Zone CORNER_CLASS_1_POD_1_ZN_1_FLR_1,   1.5000    
 Cooling Sizing Factor Information, Zone CORNER_CLASS_1_POD_2_ZN_1_FLR_1,   1.5000    
 Cooling Sizing Factor Information, Zone CORNER_CLASS_1_POD_3_ZN_1_FLR_1,   1.5000    
 Cooling Sizing Factor Information, Zone CORNER_CLASS_2_POD_1_ZN_1_FLR_1,   1.5000    
 Cooling Sizing Factor Information, Zone CORNER_CLASS_2_POD_2_ZN_1_FLR_1,   1.5000    
 Cooling Sizing Factor Information, Zone CORNER_CLASS_2_POD_3_ZN_1_FLR_1,   1.5000    
 Cooling Sizing Factor Information, Zone CORRIDOR_POD_1_ZN_1_FLR_1,   1.5000    
 Cooling Sizing Factor Information, Zone CORRIDOR_POD_2_ZN_1_FLR_1,   1.5000    
 Cooling Sizing Factor Information, Zone CORRIDOR_POD_3_ZN_1_FLR_1,   1.5000    
 Cooling Sizing Factor Information, Zone GYM_ZN_1_FLR_1,   1.5000    
 Cooling Sizing Factor Information, Zone KITCHEN_ZN_1_FLR_1,   1.5000    
 Cooling Sizing Factor Information, Zone LIBRARY_MEDIA_CENTER_ZN_1_FLR_1,   1.5000    
 Cooling Sizing Factor Information, Zone LOBBY_ZN_1_FLR_1,   1.5000    
 Cooling Sizing Factor Information, Zone MAIN_CORRIDOR_ZN_1_FLR_1,   1.5000    
 Cooling Sizing Factor Information, Zone MECH_ZN_1_FLR_1,   1.5000    
 Cooling Sizing Factor Information, Zone MULT_CLASS_1_POD_1_ZN_1_FLR_1,   1.5000    
 Cooling Sizing Factor Information, Zone MULT_CLASS_1_POD_2_ZN_1_FLR_1,   1.5000    
 Cooling Sizing Factor Information, Zone MULT_CLASS_1_POD_3_ZN_1_FLR_1,   1.5000    
 Cooling Sizing Factor Information, Zone MULT_CLASS_2_POD_1_ZN_1_FLR_1,   1.5000    
 Cooling Sizing Factor Information, Zone MULT_CLASS_2_POD_2_ZN_1_FLR_1,   1.5000    
 Cooling Sizing Factor Information, Zone MULT_CLASS_2_POD_3_ZN_1_FLR_1,   1.5000    
 Cooling Sizing Factor Information, Zone OFFICES_ZN_1_FLR_1,   1.5000    
! <Zone Sizing Information>, Zone Name, Load Type, Calc Des Load {W}, User Des Load {W}, Calc Des Air Flow Rate {m3/s}, User Des Air Flow Rate {m3/s}, Design Day Name, Date/Time of Peak, Temperature at Peak {C}, Humidity Ratio at Peak {kgWater/kgDryAir}, Floor Area {m2}, # Occupants, Calc Outdoor Air Flow Rate {m3/s}, Calc DOAS Heat Addition Rate {W}
 Zone Sizing Information, BATH_ZN_1_FLR_1, Cooling, 5048.06815, 7572.10223, 0.36878, 0.55316, BALTIMORE ANN CLG .4% CONDNS WB=>MDB, 7/21 17:20:00, 29.49733, 1.85424E-002, 190.00000, 19.00000, 0.47500, 0.00000
 Zone Sizing Information, BATH_ZN_1_FLR_1, Heating, 8389.95038, 12584.92557, 0.23088, 0.47500, BALTIMORE ANN HTG 99.6% CONDNS DB, 1/21 07:00:00, -11.00000, 1.47100E-003, 190.00000, 19.00000, 0.47500, 0.00000
 Zone Sizing Information, CAFETERIA_ZN_1_FLR_1, Cooling, 10191.33959, 15287.00938, 0.74491, 2.26619, BALTIMORE ANN CLG .4% CONDNS WB=>MDB, 7/21 15:00:00, 31.30000, 1.85424E-002, 315.00000, 226.61871, 2.26619, 0.00000
 Zone Sizing Information, CAFETERIA_ZN_1_FLR_1, Heating, 9947.44494, 14921.16741, 0.28085, 2.26619, BALTIMORE ANN HTG 99.6% CONDNS DB, 1/21 06:20:00, -11.00000, 1.47100E-003, 315.00000, 226.61871, 2.26619, 0.00000
 Zone Sizing Information, COMPUTER_CLASS_ZN_1_FLR_1, Cooling, 4689.72396, 7034.58595, 0.34264, 0.51396, BALTIMORE ANN CLG .4% CONDNS WB=>MDB, 7/21 17:00:00, 29.84400, 1.85424E-002, 162.00000, 48.64865, 0.38919, 0.00000
 Zone Sizing Information, COMPUTER_CLASS_ZN_1_FLR_1, Heating, 4379.42335, 6569.13502, 0.12364, 0.38919, BALTIMORE ANN HTG 99.6% CONDNS DB, 1/21 06:10:00, -11.00000, 1.47100E-003, 162.00000, 48.64865, 0.38919, 0.00000
 Zone Sizing Information, CORNER_CLASS_1_POD_1_ZN_1_FLR_1, Cooling, 5406.45478, 8109.68218, 0.39502, 0.59253, BALTIMORE ANN CLG .4% CONDNS WB=>MDB, 7/21 17:00:00, 29.84400, 1.85424E-002, 99.00000, 24.75000, 0.19800, 0.00000
 Zone Sizing Information, CORNER_CLASS_1_POD_1_ZN_1_FLR_1, Heating, 4529.92210, 6794.88315, 0.12788, 0.19800, BALTIMORE ANN HTG 99.6% CONDNS DB, 1/21 06:10:00, -11.00000, 1.47100E-003, 99.00000, 24.75000, 0.19800, 0.00000
 Zone Sizing Information, CORNER_CLASS_1_POD_2_ZN_1_FLR_1, Cooling, 5342.78098, 8014.17146, 0.39037, 0.58555, BALTIMORE ANN CLG .4% CONDNS WB=>MDB, 7/21 17:00:00, 29.84400, 1.85424E-002, 99.00000, 24.75000, 0.19800, 0.00000
 Zone Sizing Information, CORNER_CLASS_1_POD_2_ZN_1_FLR_1, Heating, 4508.67760, 6763.01640, 0.12728, 0.19800, BALTIMORE ANN HTG 99.6% CONDNS DB, 1/21 06:10:00, -11.00000, 1.47100E-003, 99.00000, 24.75000, 0.19800, 0.00000
 Zone Sizing Information, CORNER_CLASS_1_POD_3_ZN_1_FLR_1, Cooling, 5349.43163, 8024.14745, 0.39086, 0.58628, BALTIMORE ANN CLG .4% CONDNS WB=>MDB, 7/21 17:00:00, 29.84400, 1.85424E-002, 99.00000, 24.75000, 0.19800, 0.00000
 Zone Sizing Information, CORNER_CLASS_1_POD_3_ZN_1_FLR_1, Heating, 4507.77587, 6761.66381, 0.12726, 0.19800, BALTIMORE ANN HTG 99.6% CONDNS DB, 1/21 06:10:00, -11.00000, 1.47100E-003, 99.00000, 24.75000, 0.19800, 0.00000
 Zone Sizing Information, CORNER_CLASS_2_POD_1_ZN_1_FLR_1, Cooling, 5168.46668, 7752.70002, 0.37763, 0.56645, BALTIMORE ANN CLG .4% CONDNS WB=>MDB, 7/21 17:10:00, 29.67067, 1.85424E-002, 99.00000, 24.75000, 0.19800, 0.00000
 Zone Sizing Information, CORNER_CLASS_2_POD_1_ZN_1_FLR_1, Heating, 4499.51925, 6749.27888, 0.12702, 0.19800, BALTIMORE ANN HTG 99.6% CONDNS DB, 1/21 06:10:00, -11.00000, 1.47100E-003, 99.00000, 24.75000, 0.19800, 0.00000
 Zone Sizing Information, CORNER_CLASS_2_POD_2_ZN_1_FLR_1, Cooling, 5172.17182, 7758.25773, 0.37791, 0.56686, BALTIMORE ANN CLG .4% CONDNS WB=>MDB, 7/21 17:10:00, 29.67067, 1.85424E-002, 99.00000, 24.75000, 0.19800, 0.00000
 Zone Sizing Information, CORNER_CLASS_2_POD_2_ZN_1_FLR_1, Heating, 4501.27748, 6751.91623, 0.12707, 0.19800, BALTIMORE ANN HTG 99.6% CONDNS DB, 1/21 06:10:00, -11.00000, 1.47100E-003, 99.00000, 24.75000, 0.19800, 0.00000
 Zone Sizing Information, CORNER_CLASS_2_POD_3_ZN_1_FLR_1, Cooling, 5231.70696, 7847.56045, 0.38225, 0.57338, BALTIMORE ANN CLG .4% CONDNS WB=>MDB, 7/21 17:10:00, 29.67067, 1.85424E-002, 99.00000, 24.75000, 0.19800, 0.00000
 Zone Sizing Information, CORNER_CLASS_2_POD_3_ZN_1_FLR_1, Heating, 4517.46224, 6776.19336, 0.12753, 0.19800, BALTIMORE ANN HTG 99.6% CONDNS DB, 1/21 06:10:00, -11.00000, 1.47100E-003, 99.00000, 24.75000, 0.19800, 0.00000
 Zone Sizing Information, CORRIDOR_POD_1_ZN_1_FLR_1, Cooling, 3871.00676, 5806.51015, 0.28278, 0.42416, BALTIMORE ANN CLG .4% CONDNS WB=>MDB, 7/21 17:10:00, 29.67067, 1.85424E-002, 192.00000, 19.20000, 9.60000E-002, 0.00000
 Zone Sizing Information, CORRIDOR_POD_1_ZN_1_FLR_1, Heating, 6149.78702, 9224.68054, 0.17105, 0.25658, BALTIMORE ANN HTG 99.6% CONDNS DB, 1/21 07:00:00, -11.00000, 1.47100E-003, 192.00000, 19.20000, 9.60000E-002, 0.00000
 Zone Sizing Information, CORRIDOR_POD_2_ZN_1_FLR_1, Cooling, 3839.26471, 5758.89707, 0.28046, 0.42069, BALTIMORE ANN CLG .4% CONDNS WB=>MDB, 7/21 17:10:00, 29.67067, 1.85424E-002, 192.00000, 19.20000, 9.60000E-002, 0.00000
 Zone Sizing Information, CORRIDOR_POD_2_ZN_1_FLR_1, Heating, 6146.41143, 9219.61714, 0.17096, 0.25644, BALTIMORE ANN HTG 99.6% CONDNS DB, 1/21 07:00:00, -11.00000, 1.47100E-003, 192.00000, 19.20000, 9.60000E-002, 0.00000
 Zone Sizing Information, CORRIDOR_POD_3_ZN_1_FLR_1, Cooling, 3896.41463, 5844.62194, 0.28463, 0.42695, BALTIMORE ANN CLG .4% CONDNS WB=>MDB, 7/21 17:10:00, 29.67067, 1.85424E-002, 192.00000, 19.20000, 9.60000E-002, 0.00000
 Zone Sizing Information, CORRIDOR_POD_3_ZN_1_FLR_1, Heating, 6076.83927, 9115.25891, 0.16904, 0.25357, BALTIMORE ANN HTG 99.6% CONDNS DB, 1/21 07:00:00, -11.00000, 1.47100E-003, 192.00000, 19.20000, 9.60000E-002, 0.00000
 Zone Sizing Information, GYM_ZN_1_FLR_1, Cooling, 10682.80699, 16024.21048, 0.78061, 1.17091, BALTIMORE ANN CLG .4% CONDNS WB=>MDB, 7/21 15:10:00, 31.19600, 1.85424E-002, 357.00000, 107.20721, 1.07207, 0.00000
 Zone Sizing Information, GYM_ZN_1_FLR_1, Heating, 8025.78404, 12038.67605, 0.22661, 1.07207, BALTIMORE ANN HTG 99.6% CONDNS DB, 1/21 06:20:00, -11.00000, 1.47100E-003, 357.00000, 107.20721, 1.07207, 0.00000
 Zone Sizing Information, KITCHEN_ZN_1_FLR_1, Cooling, 5547.96869, 8321.95303, 0.40546, 0.60819, BALTIMORE ANN CLG .4% CONDNS WB=>MDB, 7/21 13:00:00, 30.78000, 1.85424E-002, 168.00000, 25.20000, 0.20160, 0.00000
 Zone Sizing Information, KITCHEN_ZN_1_FLR_1, Heating, 6445.01527, 9667.52290, 0.17818, 0.26726, BALTIMORE ANN HTG 99.6% CONDNS DB, 1/21 07:00:00, -11.00000, 1.47100E-003, 168.00000, 25.20000, 0.20160, 0.00000
 Zone Sizing Information, LIBRARY_MEDIA_CENTER_ZN_1_FLR_1, Cooling, 10335.64364, 15503.46546, 0.75512, 1.13269, BALTIMORE ANN CLG .4% CONDNS WB=>MDB, 7/21 16:40:00, 30.12133, 1.85424E-002, 399.00000, 91.72414, 0.73379, 0.00000
 Zone Sizing Information, LIBRARY_MEDIA_CENTER_ZN_1_FLR_1, Heating, 10528.93703, 15793.40555, 0.29727, 0.73379, BALTIMORE ANN HTG 99.6% CONDNS DB, 1/21 06:20:00, -11.00000, 1.47100E-003, 399.00000, 91.72414, 0.73379, 0.00000
 Zone Sizing Information, LOBBY_ZN_1_FLR_1, Cooling, 3725.60705, 5588.41058, 0.27217, 0.40825, BALTIMORE ANN CLG .4% CONDNS WB=>MDB, 7/21 16:00:00, 30.67600, 1.85424E-002, 171.00000, 0.00000, 8.55000E-002, 0.00000
 Zone Sizing Information, LOBBY_ZN_1_FLR_1, Heating, 5522.09038, 8283.13557, 0.15591, 0.23386, BALTIMORE ANN HTG 99.6% CONDNS DB, 1/21 06:20:00, -11.00000, 1.47100E-003, 171.00000, 0.00000, 8.55000E-002, 0.00000
 Zone Sizing Information, MAIN_CORRIDOR_ZN_1_FLR_1, Cooling, 7837.99570, 11756.99354, 0.57258, 0.85887, BALTIMORE ANN CLG .4% CONDNS WB=>MDB, 7/21 17:10:00, 29.67067, 1.85424E-002, 546.00000, 54.60000, 0.27300, 0.00000
 Zone Sizing Information, MAIN_CORRIDOR_ZN_1_FLR_1, Heating, 17354.56914, 26031.85371, 0.47866, 0.71798, BALTIMORE ANN HTG 99.6% CONDNS DB, 1/21 07:00:00, -11.00000, 1.47100E-003, 546.00000, 54.60000, 0.27300, 0.00000
 Zone Sizing Information, MECH_ZN_1_FLR_1, Cooling, 3810.45186, 5715.67779, 0.27834, 0.41750, BALTIMORE ANN CLG .4% CONDNS WB=>MDB, 7/21 17:00:00, 29.84400, 1.85424E-002, 252.00000, 0.00000, 6.30000E-002, 0.00000
 Zone Sizing Information, MECH_ZN_1_FLR_1, Heating, 6161.95678, 9242.93517, 0.17115, 0.25672, BALTIMORE ANN HTG 99.6% CONDNS DB, 1/21 07:00:00, -11.00000, 1.47100E-003, 252.00000, 0.00000, 6.30000E-002, 0.00000
 Zone Sizing Information, MULT_CLASS_1_POD_1_ZN_1_FLR_1, Cooling, 13691.06208, 20536.59311, 1.00029, 1.50043, BALTIMORE ANN CLG .4% CONDNS WB=>MDB, 7/21 16:00:00, 30.67600, 1.85424E-002, 477.00000, 119.25000, 0.95400, 0.00000
 Zone Sizing Information, MULT_CLASS_1_POD_1_ZN_1_FLR_1, Heating, 13607.68026, 20411.52039, 0.38418, 0.95400, BALTIMORE ANN HTG 99.6% CONDNS DB, 1/21 06:10:00, -11.00000, 1.47100E-003, 477.00000, 119.25000, 0.95400, 0.00000
 Zone Sizing Information, MULT_CLASS_1_POD_2_ZN_1_FLR_1, Cooling, 13309.28379, 19963.92568, 0.97239, 1.45859, BALTIMORE ANN CLG .4% CONDNS WB=>MDB, 7/21 16:00:00, 30.67600, 1.85424E-002, 477.00000, 119.25000, 0.95400, 0.00000
 Zone Sizing Information, MULT_CLASS_1_POD_2_ZN_1_FLR_1, Heating, 13570.02488, 20355.03731, 0.38312, 0.95400, BALTIMORE ANN HTG 99.6% CONDNS DB, 1/21 06:10:00, -11.00000, 1.47100E-003, 477.00000, 119.25000, 0.95400, 0.00000
 Zone Sizing Information, MULT_CLASS_1_POD_3_ZN_1_FLR_1, Cooling, 13398.18914, 20097.28371, 0.97889, 1.46833, BALTIMORE ANN CLG .4% CONDNS WB=>MDB, 7/21 16:00:00, 30.67600, 1.85424E-002, 477.00000, 119.25000, 0.95400, 0.00000
 Zone Sizing Information, MULT_CLASS_1_POD_3_ZN_1_FLR_1, Heating, 13461.38847, 20192.08270, 0.38005, 0.95400, BALTIMORE ANN HTG 99.6% CONDNS DB, 1/21 06:10:00, -11.00000, 1.47100E-003, 477.00000, 119.25000, 0.95400, 0.00000
 Zone Sizing Information, MULT_CLASS_2_POD_1_ZN_1_FLR_1, Cooling, 12085.43824, 18128.15735, 0.88298, 1.32447, BALTIMORE ANN CLG .4% CONDNS WB=>MDB, 7/21 17:00:00, 29.84400, 1.85424E-002, 477.00000, 119.25000, 0.95400, 0.00000
 Zone Sizing Information, MULT_CLASS_2_POD_1_ZN_1_FLR_1, Heating, 13502.24811, 20253.37217, 0.38121, 0.95400, BALTIMORE ANN HTG 99.6% CONDNS DB, 1/21 06:10:00, -11.00000, 1.47100E-003, 477.00000, 119.25000, 0.95400, 0.00000
 Zone Sizing Information, MULT_CLASS_2_POD_2_ZN_1_FLR_1, Cooling, 12100.90277, 18151.35416, 0.88411, 1.32616, BALTIMORE ANN CLG .4% CONDNS WB=>MDB, 7/21 17:00:00, 29.84400, 1.85424E-002, 477.00000, 119.25000, 0.95400, 0.00000
 Zone Sizing Information, MULT_CLASS_2_POD_2_ZN_1_FLR_1, Heating, 13510.39738, 20265.59607, 0.38144, 0.95400, BALTIMORE ANN HTG 99.6% CONDNS DB, 1/21 06:10:00, -11.00000, 1.47100E-003, 477.00000, 119.25000, 0.95400, 0.00000
 Zone Sizing Information, MULT_CLASS_2_POD_3_ZN_1_FLR_1, Cooling, 8304.45072, 12456.67608, 0.60673, 0.91010, BALTIMORE ANN CLG .4% CONDNS WB=>MDB, 7/21 17:00:00, 29.84400, 1.85424E-002, 315.00000, 78.75000, 0.63000, 0.00000
 Zone Sizing Information, MULT_CLASS_2_POD_3_ZN_1_FLR_1, Heating, 8951.55041, 13427.32562, 0.25273, 0.63000, BALTIMORE ANN HTG 99.6% CONDNS DB, 1/21 06:10:00, -11.00000, 1.47100E-003, 315.00000, 78.75000, 0.63000, 0.00000
 Zone Sizing Information, OFFICES_ZN_1_FLR_1, Cooling, 10377.80644, 15566.70965, 0.75818, 1.13727, BALTIMORE ANN CLG .4% CONDNS WB=>MDB, 7/21 16:00:00, 30.67600, 1.85424E-002, 441.00000, 22.05000, 0.22050, 0.00000
 Zone Sizing Information, OFFICES_ZN_1_FLR_1, Heating, 11603.99543, 17405.99315, 0.32762, 0.49143, BALTIMORE ANN HTG 99.6% CONDNS DB, 1/21 06:20:00, -11.00000, 1.47100E-003, 441.00000, 22.05000, 0.22050, 0.00000
! <System Sizing Information>, System Name, Load Type, Peak Load Kind, User Design Capacity, Calc Des Air Flow Rate [m3/s], User Des Air Flow Rate [m3/s], Design Day Name, Date/Time of Peak
 System Sizing Information, PSZ-AC_1:6, Cooling, Sensible, 13159.81, 0.60819, 0.60819, BALTIMORE ANN CLG .4% CONDNS WB=>MDB, 7/21 05:00:00
 System Sizing Information, PSZ-AC_1:6, Heating, Sensible, 16403.36, 0.26726, 0.26726, BALTIMORE ANN HTG 99.6% CONDNS DB, 1/21 07:00:00
 System Sizing Information, PSZ-AC_2:5, Cooling, Sensible, 25065.58, 1.17091, 1.17091, BALTIMORE ANN CLG .4% CONDNS WB=>MDB, 7/21 05:00:00
 System Sizing Information, PSZ-AC_2:5, Heating, Sensible, 65798.44, 1.07207, 1.07207, BALTIMORE ANN HTG 99.6% CONDNS DB, 1/21 00:10:00
 System Sizing Information, PSZ-AC_2:7, Cooling, Sensible, 50453.23, 2.26619, 2.26619, BALTIMORE ANN CLG .4% CONDNS WB=>MDB, 7/21 05:00:00
 System Sizing Information, PSZ-AC_2:7, Heating, Sensible, 139087.27, 2.26619, 2.26619, BALTIMORE ANN HTG 99.6% CONDNS DB, 1/21 00:10:00
 System Sizing Information, VAV_OTHER, Cooling, Sensible, 84108.87, 5.02171, 5.02171, BALTIMORE ANN CLG .4% CONDNS WB=>MDB, 7/21 00:00:00
 System Sizing Information, VAV_OTHER, Heating, Sensible, 69282.43, 3.29798, 3.29798, BALTIMORE ANN HTG 99.6% CONDNS DB, 1/21 21:30:00
 System Sizing Information, VAV_POD_1, Cooling, Sensible, 86244.20, 4.99360, 4.99360, BALTIMORE ANN CLG .4% CONDNS WB=>MDB, 7/21 00:00:00
 System Sizing Information, VAV_POD_1, Heating, Sensible, 85776.32, 2.75858, 2.75858, BALTIMORE ANN HTG 99.6% CONDNS DB, 1/21 00:10:00
 System Sizing Information, VAV_POD_2, Cooling, Sensible, 67058.85, 3.77230, 3.77230, BALTIMORE ANN CLG .4% CONDNS WB=>MDB, 7/21 00:00:00
 System Sizing Information, VAV_POD_2, Heating, Sensible, 72576.63, 2.36244, 2.36244, BALTIMORE ANN HTG 99.6% CONDNS DB, 1/21 00:10:00
 System Sizing Information, VAV_POD_3, Cooling, Sensible, 68697.85, 3.96505, 3.96505, BALTIMORE ANN CLG .4% CONDNS WB=>MDB, 7/21 00:00:00
 System Sizing Information, VAV_POD_3, Heating, Sensible, 68391.34, 2.23357, 2.23357, BALTIMORE ANN HTG 99.6% CONDNS DB, 1/21 00:10:00
! <Component Sizing Information>, Component Type, Component Name, Input Field Description, Value
 Component Sizing Information, AirTerminal:SingleDuct:VAV:Reheat, BATH_ZN_1_FLR_1 VAV BOX COMPONENT, Design Size Maximum Air Flow Rate [m3/s], 0.55316
 Component Sizing Information, AirTerminal:SingleDuct:VAV:Reheat, BATH_ZN_1_FLR_1 VAV BOX COMPONENT, Design Size Constant Minimum Air Flow Fraction, 0.26173
 Component Sizing Information, AirTerminal:SingleDuct:VAV:Reheat, BATH_ZN_1_FLR_1 VAV BOX COMPONENT, User-Specified Constant Minimum Air Flow Fraction, 0.30000
 Component Sizing Information, AirTerminal:SingleDuct:VAV:Reheat, BATH_ZN_1_FLR_1 VAV BOX COMPONENT, Design Size Minimum Air Flow Rate [m3/s], 0.16595
 Component Sizing Information, AirTerminal:SingleDuct:VAV:Reheat, BATH_ZN_1_FLR_1 VAV BOX COMPONENT, Design Size Maximum Flow per Zone Floor Area during Reheat [m3/s-m2], 8.73415E-004
 Component Sizing Information, AirTerminal:SingleDuct:VAV:Reheat, BATH_ZN_1_FLR_1 VAV BOX COMPONENT, Design Size Maximum Flow Fraction during Reheat [], 0.30000
 Component Sizing Information, AirTerminal:SingleDuct:VAV:Reheat, BATH_ZN_1_FLR_1 VAV BOX COMPONENT, Design Size Maximum Reheat Water Flow Rate [m3/s], 3.15201E-004
 Component Sizing Information, AirTerminal:SingleDuct:VAV:Reheat, BATH_ZN_1_FLR_1 VAV BOX COMPONENT, Design Size Reheat Coil Sizing Air Volume Flow Rate [m3/s], 0.34631
 Component Sizing Information, AirTerminal:SingleDuct:VAV:Reheat, BATH_ZN_1_FLR_1 VAV BOX COMPONENT, Design Size Reheat Coil Sizing Inlet Air Temperature [C], 16.70000
 Component Sizing Information, AirTerminal:SingleDuct:VAV:Reheat, BATH_ZN_1_FLR_1 VAV BOX COMPONENT, Design Size Reheat Coil Sizing Inlet Air Humidity Ratio [kgWater/kgDryAir], 8.00000E-003
 Component Sizing Information, Coil:Heating:Water, BATH_ZN_1_FLR_1 VAV BOX REHEAT COIL, Design Size Rated Capacity [W], 14640.67899
 Component Sizing Information, Coil:Heating:Water, BATH_ZN_1_FLR_1 VAV BOX REHEAT COIL, Design Size Maximum Water Flow Rate [m3/s], 3.15201E-004
 Component Sizing Information, Coil:Heating:Water, BATH_ZN_1_FLR_1 VAV BOX REHEAT COIL, Design Size U-Factor Times Area Value [W/K], 356.33495
! <Water Heating Coil Capacity Information>,Component Type,Name,Nominal Total Capacity {W}
Water Heating Coil Capacity Information,Coil:Heating:Water,BATH_ZN_1_FLR_1 VAV BOX REHEAT COIL,10491.24
 Component Sizing Information, AirTerminal:SingleDuct:Uncontrolled, CAFETERIA_ZN_1_FLR_1 DIRECT AIR, Design Size Maximum Air Flow Rate [m3/s], 2.26619
 Component Sizing Information, AirTerminal:SingleDuct:VAV:Reheat, COMPUTER_CLASS_ZN_1_FLR_1 VAV BOX COMPONENT, Design Size Maximum Air Flow Rate [m3/s], 0.51396
 Component Sizing Information, AirTerminal:SingleDuct:VAV:Reheat, COMPUTER_CLASS_ZN_1_FLR_1 VAV BOX COMPONENT, Design Size Constant Minimum Air Flow Fraction, 0.24018
 Component Sizing Information, AirTerminal:SingleDuct:VAV:Reheat, COMPUTER_CLASS_ZN_1_FLR_1 VAV BOX COMPONENT, User-Specified Constant Minimum Air Flow Fraction, 0.30000
 Component Sizing Information, AirTerminal:SingleDuct:VAV:Reheat, COMPUTER_CLASS_ZN_1_FLR_1 VAV BOX COMPONENT, Design Size Minimum Air Flow Rate [m3/s], 0.15419
 Component Sizing Information, AirTerminal:SingleDuct:VAV:Reheat, COMPUTER_CLASS_ZN_1_FLR_1 VAV BOX COMPONENT, Design Size Maximum Flow per Zone Floor Area during Reheat [m3/s-m2], 9.51785E-004
 Component Sizing Information, AirTerminal:SingleDuct:VAV:Reheat, COMPUTER_CLASS_ZN_1_FLR_1 VAV BOX COMPONENT, Design Size Maximum Flow Fraction during Reheat [], 0.30000
 Component Sizing Information, AirTerminal:SingleDuct:VAV:Reheat, COMPUTER_CLASS_ZN_1_FLR_1 VAV BOX COMPONENT, Design Size Maximum Reheat Water Flow Rate [m3/s], 1.65103E-004
 Component Sizing Information, AirTerminal:SingleDuct:VAV:Reheat, COMPUTER_CLASS_ZN_1_FLR_1 VAV BOX COMPONENT, Design Size Reheat Coil Sizing Air Volume Flow Rate [m3/s], 0.18547
 Component Sizing Information, AirTerminal:SingleDuct:VAV:Reheat, COMPUTER_CLASS_ZN_1_FLR_1 VAV BOX COMPONENT, Design Size Reheat Coil Sizing Inlet Air Temperature [C], 16.70000
 Component Sizing Information, AirTerminal:SingleDuct:VAV:Reheat, COMPUTER_CLASS_ZN_1_FLR_1 VAV BOX COMPONENT, Design Size Reheat Coil Sizing Inlet Air Humidity Ratio [kgWater/kgDryAir], 8.00000E-003
 Component Sizing Information, Coil:Heating:Water, COMPUTER_CLASS_ZN_1_FLR_1 VAV BOX REHEAT COIL, Design Size Rated Capacity [W], 7668.82793
 Component Sizing Information, Coil:Heating:Water, COMPUTER_CLASS_ZN_1_FLR_1 VAV BOX REHEAT COIL, Design Size Maximum Water Flow Rate [m3/s], 1.65103E-004
 Component Sizing Information, Coil:Heating:Water, COMPUTER_CLASS_ZN_1_FLR_1 VAV BOX REHEAT COIL, Design Size U-Factor Times Area Value [W/K], 184.63705
Water Heating Coil Capacity Information,Coil:Heating:Water,COMPUTER_CLASS_ZN_1_FLR_1 VAV BOX REHEAT COIL,7117.81
 Component Sizing Information, AirTerminal:SingleDuct:VAV:Reheat, CORNER_CLASS_1_POD_1_ZN_1_FLR_1 VAV BOX COMPONENT, Design Size Maximum Air Flow Rate [m3/s], 0.59253
 Component Sizing Information, AirTerminal:SingleDuct:VAV:Reheat, CORNER_CLASS_1_POD_1_ZN_1_FLR_1 VAV BOX COMPONENT, Design Size Constant Minimum Air Flow Fraction, 0.20000
 Component Sizing Information, AirTerminal:SingleDuct:VAV:Reheat, CORNER_CLASS_1_POD_1_ZN_1_FLR_1 VAV BOX COMPONENT, User-Specified Constant Minimum Air Flow Fraction, 0.30000
 Component Sizing Information, AirTerminal:SingleDuct:VAV:Reheat, CORNER_CLASS_1_POD_1_ZN_1_FLR_1 VAV BOX COMPONENT, Design Size Minimum Air Flow Rate [m3/s], 0.17776
 Component Sizing Information, AirTerminal:SingleDuct:VAV:Reheat, CORNER_CLASS_1_POD_1_ZN_1_FLR_1 VAV BOX COMPONENT, Design Size Maximum Flow per Zone Floor Area during Reheat [m3/s-m2], 1.79555E-003
 Component Sizing Information, AirTerminal:SingleDuct:VAV:Reheat, CORNER_CLASS_1_POD_1_ZN_1_FLR_1 VAV BOX COMPONENT, Design Size Maximum Flow Fraction during Reheat [], 0.30000
 Component Sizing Information, AirTerminal:SingleDuct:VAV:Reheat, CORNER_CLASS_1_POD_1_ZN_1_FLR_1 VAV BOX COMPONENT, Design Size Maximum Reheat Water Flow Rate [m3/s], 1.70766E-004
 Component Sizing Information, AirTerminal:SingleDuct:VAV:Reheat, CORNER_CLASS_1_POD_1_ZN_1_FLR_1 VAV BOX COMPONENT, Design Size Reheat Coil Sizing Air Volume Flow Rate [m3/s], 0.19182
 Component Sizing Information, AirTerminal:SingleDuct:VAV:Reheat, CORNER_CLASS_1_POD_1_ZN_1_FLR_1 VAV BOX COMPONENT, Design Size Reheat Coil Sizing Inlet Air Temperature [C], 16.70000
 Component Sizing Information, AirTerminal:SingleDuct:VAV:Reheat, CORNER_CLASS_1_POD_1_ZN_1_FLR_1 VAV BOX COMPONENT, Design Size Reheat Coil Sizing Inlet Air Humidity Ratio [kgWater/kgDryAir], 8.00000E-003
 Component Sizing Information, Coil:Heating:Water, CORNER_CLASS_1_POD_1_ZN_1_FLR_1 VAV BOX REHEAT COIL, Design Size Rated Capacity [W], 7931.86238
 Component Sizing Information, Coil:Heating:Water, CORNER_CLASS_1_POD_1_ZN_1_FLR_1 VAV BOX REHEAT COIL, Design Size Maximum Water Flow Rate [m3/s], 1.70766E-004
 Component Sizing Information, Coil:Heating:Water, CORNER_CLASS_1_POD_1_ZN_1_FLR_1 VAV BOX REHEAT COIL, Design Size U-Factor Times Area Value [W/K], 190.97169
Water Heating Coil Capacity Information,Coil:Heating:Water,CORNER_CLASS_1_POD_1_ZN_1_FLR_1 VAV BOX REHEAT COIL,7634.75
 Component Sizing Information, AirTerminal:SingleDuct:VAV:Reheat, CORNER_CLASS_1_POD_2_ZN_1_FLR_1 VAV BOX COMPONENT, Design Size Maximum Air Flow Rate [m3/s], 0.58555
 Component Sizing Information, AirTerminal:SingleDuct:VAV:Reheat, CORNER_CLASS_1_POD_2_ZN_1_FLR_1 VAV BOX COMPONENT, Design Size Constant Minimum Air Flow Fraction, 0.20000
 Component Sizing Information, AirTerminal:SingleDuct:VAV:Reheat, CORNER_CLASS_1_POD_2_ZN_1_FLR_1 VAV BOX COMPONENT, User-Specified Constant Minimum Air Flow Fraction, 0.30000
 Component Sizing Information, AirTerminal:SingleDuct:VAV:Reheat, CORNER_CLASS_1_POD_2_ZN_1_FLR_1 VAV BOX COMPONENT, Design Size Minimum Air Flow Rate [m3/s], 0.17567
 Component Sizing Information, AirTerminal:SingleDuct:VAV:Reheat, CORNER_CLASS_1_POD_2_ZN_1_FLR_1 VAV BOX COMPONENT, Design Size Maximum Flow per Zone Floor Area during Reheat [m3/s-m2], 1.77441E-003
 Component Sizing Information, AirTerminal:SingleDuct:VAV:Reheat, CORNER_CLASS_1_POD_2_ZN_1_FLR_1 VAV BOX COMPONENT, Design Size Maximum Flow Fraction during Reheat [], 0.30000
 Component Sizing Information, AirTerminal:SingleDuct:VAV:Reheat, CORNER_CLASS_1_POD_2_ZN_1_FLR_1 VAV BOX COMPONENT, Design Size Maximum Reheat Water Flow Rate [m3/s], 1.69965E-004
 Component Sizing Information, AirTerminal:SingleDuct:VAV:Reheat, CORNER_CLASS_1_POD_2_ZN_1_FLR_1 VAV BOX COMPONENT, Design Size Reheat Coil Sizing Air Volume Flow Rate [m3/s], 0.19092
 Component Sizing Information, AirTerminal:SingleDuct:VAV:Reheat, CORNER_CLASS_1_POD_2_ZN_1_FLR_1 VAV BOX COMPONENT, Design Size Reheat Coil Sizing Inlet Air Temperature [C], 16.70000
 Component Sizing Information, AirTerminal:SingleDuct:VAV:Reheat, CORNER_CLASS_1_POD_2_ZN_1_FLR_1 VAV BOX COMPONENT, Design Size Reheat Coil Sizing Inlet Air Humidity Ratio [kgWater/kgDryAir], 8.00000E-003
 Component Sizing Information, Coil:Heating:Water, CORNER_CLASS_1_POD_2_ZN_1_FLR_1 VAV BOX REHEAT COIL, Design Size Rated Capacity [W], 7894.65558
 Component Sizing Information, Coil:Heating:Water, CORNER_CLASS_1_POD_2_ZN_1_FLR_1 VAV BOX REHEAT COIL, Design Size Maximum Water Flow Rate [m3/s], 1.69965E-004
 Component Sizing Information, Coil:Heating:Water, CORNER_CLASS_1_POD_2_ZN_1_FLR_1 VAV BOX REHEAT COIL, Design Size U-Factor Times Area Value [W/K], 190.07579
Water Heating Coil Capacity Information,Coil:Heating:Water,CORNER_CLASS_1_POD_2_ZN_1_FLR_1 VAV BOX REHEAT COIL,7581.63
 Component Sizing Information, AirTerminal:SingleDuct:VAV:Reheat, CORNER_CLASS_1_POD_3_ZN_1_FLR_1 VAV BOX COMPONENT, Design Size Maximum Air Flow Rate [m3/s], 0.58628
 Component Sizing Information, AirTerminal:SingleDuct:VAV:Reheat, CORNER_CLASS_1_POD_3_ZN_1_FLR_1 VAV BOX COMPONENT, Design Size Constant Minimum Air Flow Fraction, 0.20000
 Component Sizing Information, AirTerminal:SingleDuct:VAV:Reheat, CORNER_CLASS_1_POD_3_ZN_1_FLR_1 VAV BOX COMPONENT, User-Specified Constant Minimum Air Flow Fraction, 0.30000
 Component Sizing Information, AirTerminal:SingleDuct:VAV:Reheat, CORNER_CLASS_1_POD_3_ZN_1_FLR_1 VAV BOX COMPONENT, Design Size Minimum Air Flow Rate [m3/s], 0.17589
 Component Sizing Information, AirTerminal:SingleDuct:VAV:Reheat, CORNER_CLASS_1_POD_3_ZN_1_FLR_1 VAV BOX COMPONENT, Design Size Maximum Flow per Zone Floor Area during Reheat [m3/s-m2], 1.77662E-003
 Component Sizing Information, AirTerminal:SingleDuct:VAV:Reheat, CORNER_CLASS_1_POD_3_ZN_1_FLR_1 VAV BOX COMPONENT, Design Size Maximum Flow Fraction during Reheat [], 0.30000
 Component Sizing Information, AirTerminal:SingleDuct:VAV:Reheat, CORNER_CLASS_1_POD_3_ZN_1_FLR_1 VAV BOX COMPONENT, Design Size Maximum Reheat Water Flow Rate [m3/s], 1.69931E-004
 Component Sizing Information, AirTerminal:SingleDuct:VAV:Reheat, CORNER_CLASS_1_POD_3_ZN_1_FLR_1 VAV BOX COMPONENT, Design Size Reheat Coil Sizing Air Volume Flow Rate [m3/s], 0.19089
 Component Sizing Information, AirTerminal:SingleDuct:VAV:Reheat, CORNER_CLASS_1_POD_3_ZN_1_FLR_1 VAV BOX COMPONENT, Design Size Reheat Coil Sizing Inlet Air Temperature [C], 16.70000
 Component Sizing Information, AirTerminal:SingleDuct:VAV:Reheat, CORNER_CLASS_1_POD_3_ZN_1_FLR_1 VAV BOX COMPONENT, Design Size Reheat Coil Sizing Inlet Air Humidity Ratio [kgWater/kgDryAir], 8.00000E-003
 Component Sizing Information, Coil:Heating:Water, CORNER_CLASS_1_POD_3_ZN_1_FLR_1 VAV BOX REHEAT COIL, Design Size Rated Capacity [W], 7893.07636
 Component Sizing Information, Coil:Heating:Water, CORNER_CLASS_1_POD_3_ZN_1_FLR_1 VAV BOX REHEAT COIL, Design Size Maximum Water Flow Rate [m3/s], 1.69931E-004
 Component Sizing Information, Coil:Heating:Water, CORNER_CLASS_1_POD_3_ZN_1_FLR_1 VAV BOX REHEAT COIL, Design Size U-Factor Times Area Value [W/K], 190.03776
Water Heating Coil Capacity Information,Coil:Heating:Water,CORNER_CLASS_1_POD_3_ZN_1_FLR_1 VAV BOX REHEAT COIL,7583.61
 Component Sizing Information, AirTerminal:SingleDuct:VAV:Reheat, CORNER_CLASS_2_POD_1_ZN_1_FLR_1 VAV BOX COMPONENT, Design Size Maximum Air Flow Rate [m3/s], 0.56645
 Component Sizing Information, AirTerminal:SingleDuct:VAV:Reheat, CORNER_CLASS_2_POD_1_ZN_1_FLR_1 VAV BOX COMPONENT, Design Size Constant Minimum Air Flow Fraction, 0.20000
 Component Sizing Information, AirTerminal:SingleDuct:VAV:Reheat, CORNER_CLASS_2_POD_1_ZN_1_FLR_1 VAV BOX COMPONENT, User-Specified Constant Minimum Air Flow Fraction, 0.30000
 Component Sizing Information, AirTerminal:SingleDuct:VAV:Reheat, CORNER_CLASS_2_POD_1_ZN_1_FLR_1 VAV BOX COMPONENT, Design Size Minimum Air Flow Rate [m3/s], 0.16994
 Component Sizing Information, AirTerminal:SingleDuct:VAV:Reheat, CORNER_CLASS_2_POD_1_ZN_1_FLR_1 VAV BOX COMPONENT, Design Size Maximum Flow per Zone Floor Area during Reheat [m3/s-m2], 1.71652E-003
 Component Sizing Information, AirTerminal:SingleDuct:VAV:Reheat, CORNER_CLASS_2_POD_1_ZN_1_FLR_1 VAV BOX COMPONENT, Design Size Maximum Flow Fraction during Reheat [], 0.30000
 Component Sizing Information, AirTerminal:SingleDuct:VAV:Reheat, CORNER_CLASS_2_POD_1_ZN_1_FLR_1 VAV BOX COMPONENT, Design Size Maximum Reheat Water Flow Rate [m3/s], 1.69619E-004
 Component Sizing Information, AirTerminal:SingleDuct:VAV:Reheat, CORNER_CLASS_2_POD_1_ZN_1_FLR_1 VAV BOX COMPONENT, Design Size Reheat Coil Sizing Air Volume Flow Rate [m3/s], 0.19054
 Component Sizing Information, AirTerminal:SingleDuct:VAV:Reheat, CORNER_CLASS_2_POD_1_ZN_1_FLR_1 VAV BOX COMPONENT, Design Size Reheat Coil Sizing Inlet Air Temperature [C], 16.70000
 Component Sizing Information, AirTerminal:SingleDuct:VAV:Reheat, CORNER_CLASS_2_POD_1_ZN_1_FLR_1 VAV BOX COMPONENT, Design Size Reheat Coil Sizing Inlet Air Humidity Ratio [kgWater/kgDryAir], 8.00000E-003
 Component Sizing Information, Coil:Heating:Water, CORNER_CLASS_2_POD_1_ZN_1_FLR_1 VAV BOX REHEAT COIL, Design Size Rated Capacity [W], 7878.61553
 Component Sizing Information, Coil:Heating:Water, CORNER_CLASS_2_POD_1_ZN_1_FLR_1 VAV BOX REHEAT COIL, Design Size Maximum Water Flow Rate [m3/s], 1.69619E-004
 Component Sizing Information, Coil:Heating:Water, CORNER_CLASS_2_POD_1_ZN_1_FLR_1 VAV BOX REHEAT COIL, Design Size U-Factor Times Area Value [W/K], 189.68956
Water Heating Coil Capacity Information,Coil:Heating:Water,CORNER_CLASS_2_POD_1_ZN_1_FLR_1 VAV BOX REHEAT COIL,7490.03
 Component Sizing Information, AirTerminal:SingleDuct:VAV:Reheat, CORNER_CLASS_2_POD_2_ZN_1_FLR_1 VAV BOX COMPONENT, Design Size Maximum Air Flow Rate [m3/s], 0.56686
 Component Sizing Information, AirTerminal:SingleDuct:VAV:Reheat, CORNER_CLASS_2_POD_2_ZN_1_FLR_1 VAV BOX COMPONENT, Design Size Constant Minimum Air Flow Fraction, 0.20000
 Component Sizing Information, AirTerminal:SingleDuct:VAV:Reheat, CORNER_CLASS_2_POD_2_ZN_1_FLR_1 VAV BOX COMPONENT, User-Specified Constant Minimum Air Flow Fraction, 0.30000
 Component Sizing Information, AirTerminal:SingleDuct:VAV:Reheat, CORNER_CLASS_2_POD_2_ZN_1_FLR_1 VAV BOX COMPONENT, Design Size Minimum Air Flow Rate [m3/s], 0.17006
 Component Sizing Information, AirTerminal:SingleDuct:VAV:Reheat, CORNER_CLASS_2_POD_2_ZN_1_FLR_1 VAV BOX COMPONENT, Design Size Maximum Flow per Zone Floor Area during Reheat [m3/s-m2], 1.71775E-003
 Component Sizing Information, AirTerminal:SingleDuct:VAV:Reheat, CORNER_CLASS_2_POD_2_ZN_1_FLR_1 VAV BOX COMPONENT, Design Size Maximum Flow Fraction during Reheat [], 0.30000
 Component Sizing Information, AirTerminal:SingleDuct:VAV:Reheat, CORNER_CLASS_2_POD_2_ZN_1_FLR_1 VAV BOX COMPONENT, Design Size Maximum Reheat Water Flow Rate [m3/s], 1.69686E-004
 Component Sizing Information, AirTerminal:SingleDuct:VAV:Reheat, CORNER_CLASS_2_POD_2_ZN_1_FLR_1 VAV BOX COMPONENT, Design Size Reheat Coil Sizing Air Volume Flow Rate [m3/s], 0.19061
 Component Sizing Information, AirTerminal:SingleDuct:VAV:Reheat, CORNER_CLASS_2_POD_2_ZN_1_FLR_1 VAV BOX COMPONENT, Design Size Reheat Coil Sizing Inlet Air Temperature [C], 16.70000
 Component Sizing Information, AirTerminal:SingleDuct:VAV:Reheat, CORNER_CLASS_2_POD_2_ZN_1_FLR_1 VAV BOX COMPONENT, Design Size Reheat Coil Sizing Inlet Air Humidity Ratio [kgWater/kgDryAir], 8.00000E-003
 Component Sizing Information, Coil:Heating:Water, CORNER_CLASS_2_POD_2_ZN_1_FLR_1 VAV BOX REHEAT COIL, Design Size Rated Capacity [W], 7881.69482
 Component Sizing Information, Coil:Heating:Water, CORNER_CLASS_2_POD_2_ZN_1_FLR_1 VAV BOX REHEAT COIL, Design Size Maximum Water Flow Rate [m3/s], 1.69686E-004
 Component Sizing Information, Coil:Heating:Water, CORNER_CLASS_2_POD_2_ZN_1_FLR_1 VAV BOX REHEAT COIL, Design Size U-Factor Times Area Value [W/K], 189.76371
Water Heating Coil Capacity Information,Coil:Heating:Water,CORNER_CLASS_2_POD_2_ZN_1_FLR_1 VAV BOX REHEAT COIL,7493.76
 Component Sizing Information, AirTerminal:SingleDuct:VAV:Reheat, CORNER_CLASS_2_POD_3_ZN_1_FLR_1 VAV BOX COMPONENT, Design Size Maximum Air Flow Rate [m3/s], 0.57338
 Component Sizing Information, AirTerminal:SingleDuct:VAV:Reheat, CORNER_CLASS_2_POD_3_ZN_1_FLR_1 VAV BOX COMPONENT, Design Size Constant Minimum Air Flow Fraction, 0.20000
 Component Sizing Information, AirTerminal:SingleDuct:VAV:Reheat, CORNER_CLASS_2_POD_3_ZN_1_FLR_1 VAV BOX COMPONENT, User-Specified Constant Minimum Air Flow Fraction, 0.30000
 Component Sizing Information, AirTerminal:SingleDuct:VAV:Reheat, CORNER_CLASS_2_POD_3_ZN_1_FLR_1 VAV BOX COMPONENT, Design Size Minimum Air Flow Rate [m3/s], 0.17201
 Component Sizing Information, AirTerminal:SingleDuct:VAV:Reheat, CORNER_CLASS_2_POD_3_ZN_1_FLR_1 VAV BOX COMPONENT, Design Size Maximum Flow per Zone Floor Area during Reheat [m3/s-m2], 1.73752E-003
 Component Sizing Information, AirTerminal:SingleDuct:VAV:Reheat, CORNER_CLASS_2_POD_3_ZN_1_FLR_1 VAV BOX COMPONENT, Design Size Maximum Flow Fraction during Reheat [], 0.30000
 Component Sizing Information, AirTerminal:SingleDuct:VAV:Reheat, CORNER_CLASS_2_POD_3_ZN_1_FLR_1 VAV BOX COMPONENT, Design Size Maximum Reheat Water Flow Rate [m3/s], 1.70296E-004
 Component Sizing Information, AirTerminal:SingleDuct:VAV:Reheat, CORNER_CLASS_2_POD_3_ZN_1_FLR_1 VAV BOX COMPONENT, Design Size Reheat Coil Sizing Air Volume Flow Rate [m3/s], 0.19130
 Component Sizing Information, AirTerminal:SingleDuct:VAV:Reheat, CORNER_CLASS_2_POD_3_ZN_1_FLR_1 VAV BOX COMPONENT, Design Size Reheat Coil Sizing Inlet Air Temperature [C], 16.70000
 Component Sizing Information, AirTerminal:SingleDuct:VAV:Reheat, CORNER_CLASS_2_POD_3_ZN_1_FLR_1 VAV BOX COMPONENT, Design Size Reheat Coil Sizing Inlet Air Humidity Ratio [kgWater/kgDryAir], 8.00000E-003
[...]
 Component Sizing Information, Coil:Cooling:DX:SingleSpeed, PSZ-AC_1:6_COOLC DXCOIL, Design Size Rated Air Flow Rate [m3/s], 0.60819
 Component Sizing Information, Coil:Cooling:DX:SingleSpeed, PSZ-AC_1:6_COOLC DXCOIL, Design Size Gross Rated Total Cooling Capacity [W], 15102.77274
 Component Sizing Information, Coil:Cooling:DX:SingleSpeed, PSZ-AC_1:6_COOLC DXCOIL, Design Size Gross Rated Sensible Heat Ratio, 0.69808
! <DX Cooling Coil Standard Rating Information>, Component Type, Component Name, Standard Rating (Net) Cooling Capacity {W}, Standard Rated Net COP {W/W}, EER {Btu/W-h}, SEER {Btu/W-h}, IEER {Btu/W-h}
 DX Cooling Coil Standard Rating Information, Coil:Cooling:DX:SingleSpeed, PSZ-AC_1:6_COOLC DXCOIL, 14630.9, 3.19, 10.88, 12.53, 12.16
 Component Sizing Information, Coil:Heating:Fuel, PSZ-AC_1:6_HEATC, Design Size Nominal Capacity [W], 37327.58944
 Component Sizing Information, Fan:ConstantVolume, PSZ-AC_1:6_FAN, Design Size Maximum Flow Rate [m3/s], 0.60819
 Component Sizing Information, Controller:OutdoorAir, PSZ-AC_2:5_OA_CONTROLLER, Maximum Outdoor Air Flow Rate [m3/s], 1.17091
 Component Sizing Information, Controller:OutdoorAir, PSZ-AC_2:5_OA_CONTROLLER, Minimum Outdoor Air Flow Rate [m3/s], 1.07207
 Component Sizing Information, Coil:Cooling:DX:SingleSpeed, PSZ-AC_2:5_COOLC DXCOIL, Design Size Rated Air Flow Rate [m3/s], 1.17091
 Component Sizing Information, Coil:Cooling:DX:SingleSpeed, PSZ-AC_2:5_COOLC DXCOIL, Design Size Gross Rated Total Cooling Capacity [W], 29076.46426
 Component Sizing Information, Coil:Cooling:DX:SingleSpeed, PSZ-AC_2:5_COOLC DXCOIL, Design Size Gross Rated Sensible Heat Ratio, 0.69808
 DX Cooling Coil Standard Rating Information, Coil:Cooling:DX:SingleSpeed, PSZ-AC_2:5_COOLC DXCOIL, 28168.1, 3.06, 10.43, 12.03, 11.72
 Component Sizing Information, Coil:Heating:Fuel, PSZ-AC_2:5_HEATC, Design Size Nominal Capacity [W], 68058.55531
 Component Sizing Information, Fan:ConstantVolume, PSZ-AC_2:5_FAN, Design Size Maximum Flow Rate [m3/s], 1.17091
 Component Sizing Information, Controller:OutdoorAir, PSZ-AC_2:7_OA_CONTROLLER, Maximum Outdoor Air Flow Rate [m3/s], 2.26619
 Component Sizing Information, Controller:OutdoorAir, PSZ-AC_2:7_OA_CONTROLLER, Minimum Outdoor Air Flow Rate [m3/s], 2.26619
 Component Sizing Information, Coil:Cooling:DX:TwoSpeed, PSZ-AC_2:7_COOLC DXCOIL, Design Size High Speed Rated Air Flow Rate [m3/s], 2.26619
 Component Sizing Information, Coil:Cooling:DX:TwoSpeed, PSZ-AC_2:7_COOLC DXCOIL, Design Size High Speed Gross Rated Total Cooling Capacity [W], 56274.82122
 Component Sizing Information, Coil:Cooling:DX:TwoSpeed, PSZ-AC_2:7_COOLC DXCOIL, Design Size High Speed Rated Sensible Heat Ratio, 0.69808
 Component Sizing Information, Coil:Cooling:DX:TwoSpeed, PSZ-AC_2:7_COOLC DXCOIL, Design Size Low Speed Rated Air Flow Rate [m3/s], 0.75532
 Component Sizing Information, Coil:Cooling:DX:TwoSpeed, PSZ-AC_2:7_COOLC DXCOIL, Design Size Low Speed Gross Rated Total Cooling Capacity [W], 18756.39791
 Component Sizing Information, Coil:Cooling:DX:TwoSpeed, PSZ-AC_2:7_COOLC DXCOIL, Design Size Low Speed Gross Rated Sensible Heat Ratio, 0.69808
 Component Sizing Information, Coil:Heating:Fuel, PSZ-AC_2:7_HEATC, Design Size Nominal Capacity [W], 139087.26948
 Component Sizing Information, Fan:ConstantVolume, PSZ-AC_2:7_FAN, Design Size Maximum Flow Rate [m3/s], 2.26619
 Component Sizing Information, Controller:OutdoorAir, VAV_OTHER_OA_CONTROLLER, Maximum Outdoor Air Flow Rate [m3/s], 5.02171
 Component Sizing Information, Controller:OutdoorAir, VAV_OTHER_OA_CONTROLLER, Minimum Outdoor Air Flow Rate [m3/s], 2.23998
 Component Sizing Information, Coil:Cooling:DX:TwoSpeed, VAV_OTHER_COOLC DXCOIL, Design Size High Speed Rated Air Flow Rate [m3/s], 5.02171
 Component Sizing Information, Coil:Cooling:DX:TwoSpeed, VAV_OTHER_COOLC DXCOIL, Design Size High Speed Gross Rated Total Cooling Capacity [W], 124700.92913
 Component Sizing Information, Coil:Cooling:DX:TwoSpeed, VAV_OTHER_COOLC DXCOIL, Design Size High Speed Rated Sensible Heat Ratio, 0.69808
 Component Sizing Information, Coil:Cooling:DX:TwoSpeed, VAV_OTHER_COOLC DXCOIL, Design Size Low Speed Rated Air Flow Rate [m3/s], 1.67373
 Component Sizing Information, Coil:Cooling:DX:TwoSpeed, VAV_OTHER_COOLC DXCOIL, Design Size Low Speed Gross Rated Total Cooling Capacity [W], 41562.81968
 Component Sizing Information, Coil:Cooling:DX:TwoSpeed, VAV_OTHER_COOLC DXCOIL, Design Size Low Speed Gross Rated Sensible Heat Ratio, 0.69808
! <VAV DX Cooling Coil Standard Rating Information>, DX Coil Type, DX Coil Name, Fan Type, Fan Name, Standard Net Cooling Capacity {W}, Standard Net Cooling Capacity {Btu/h}, IEER {Btu/W-h}, COP 100% Capacity {W/W}, COP 75% Capacity {W/W}, COP 50% Capacity {W/W}, COP 25% Capacity {W/W}, EER 100% Capacity {Btu/W-h}, EER 75% Capacity {Btu/W-h}, EER 50% Capacity {Btu/W-h}, EER 25% Capacity {Btu/W-h}, Supply Air Flow 100% {kg/s}, Supply Air Flow 75% {kg/s},Supply Air Flow 50% {kg/s},Supply Air Flow 25% {kg/s}
 VAV DX Cooling Coil Standard Rating Information, Coil:Cooling:DX:TwoSpeed,VAV_OTHER_COOLC DXCOIL,N/A,N/A,120632.03,411613.56,11.65,2.84,3.26,3.68,3.79,9.69,11.12,12.55,12.92,5.7760,4.6441,3.1193,1.3313,
 Component Sizing Information, Coil:Heating:Water, VAV_OTHER_HEATC, Design Size Rated Capacity [W], 50219.66304
 Component Sizing Information, Coil:Heating:Water, VAV_OTHER_HEATC, Design Size Maximum Water Flow Rate [m3/s], 1.08118E-003
 Component Sizing Information, Coil:Heating:Water, VAV_OTHER_HEATC, Design Size U-Factor Times Area Value [W/K], 703.16164
Water Heating Coil Capacity Information,Coil:Heating:Water,VAV_OTHER_HEATC,35439.21
 Component Sizing Information, Fan:VariableVolume, VAV_OTHER_FAN, Design Size Maximum Flow Rate [m3/s], 5.02171
 Component Sizing Information, Controller:WaterCoil, VAV_OTHER_HEATC_CONTROLLER, Maximum Actuated Flow [m3/s], 1.08118E-003
 Component Sizing Information, Controller:OutdoorAir, VAV_POD_1_OA_CONTROLLER, Maximum Outdoor Air Flow Rate [m3/s], 4.99360
 Component Sizing Information, Controller:OutdoorAir, VAV_POD_1_OA_CONTROLLER, Minimum Outdoor Air Flow Rate [m3/s], 2.59800
 Component Sizing Information, Coil:Cooling:DX:TwoSpeed, VAV_POD_1_COOLC DXCOIL, Design Size High Speed Rated Air Flow Rate [m3/s], 4.99360
 Component Sizing Information, Coil:Cooling:DX:TwoSpeed, VAV_POD_1_COOLC DXCOIL, Design Size High Speed Gross Rated Total Cooling Capacity [W], 124003.04677
 Component Sizing Information, Coil:Cooling:DX:TwoSpeed, VAV_POD_1_COOLC DXCOIL, Design Size High Speed Rated Sensible Heat Ratio, 0.69808
 Component Sizing Information, Coil:Cooling:DX:TwoSpeed, VAV_POD_1_COOLC DXCOIL, Design Size Low Speed Rated Air Flow Rate [m3/s], 1.66437
 Component Sizing Information, Coil:Cooling:DX:TwoSpeed, VAV_POD_1_COOLC DXCOIL, Design Size Low Speed Gross Rated Total Cooling Capacity [W], 41330.21549
 Component Sizing Information, Coil:Cooling:DX:TwoSpeed, VAV_POD_1_COOLC DXCOIL, Design Size Low Speed Gross Rated Sensible Heat Ratio, 0.69808
 VAV DX Cooling Coil Standard Rating Information, Coil:Cooling:DX:TwoSpeed,VAV_POD_1_COOLC DXCOIL,N/A,N/A,119956.92,409309.98,11.65,2.84,3.26,3.68,3.79,9.69,11.12,12.55,12.92,5.7436,4.6181,3.1019,1.3239,
 Component Sizing Information, Coil:Heating:Water, VAV_POD_1_HEATC, Design Size Rated Capacity [W], 49938.61127
 Component Sizing Information, Coil:Heating:Water, VAV_POD_1_HEATC, Design Size Maximum Water Flow Rate [m3/s], 1.07513E-003
 Component Sizing Information, Coil:Heating:Water, VAV_POD_1_HEATC, Design Size U-Factor Times Area Value [W/K], 699.22643
Water Heating Coil Capacity Information,Coil:Heating:Water,VAV_POD_1_HEATC,35240.88
 Component Sizing Information, Fan:VariableVolume, VAV_POD_1_FAN, Design Size Maximum Flow Rate [m3/s], 4.99360
 Component Sizing Information, Controller:WaterCoil, VAV_POD_1_HEATC_CONTROLLER, Maximum Actuated Flow [m3/s], 1.07513E-003
 Component Sizing Information, Controller:OutdoorAir, VAV_POD_2_OA_CONTROLLER, Maximum Outdoor Air Flow Rate [m3/s], 3.77230
 Component Sizing Information, Controller:OutdoorAir, VAV_POD_2_OA_CONTROLLER, Minimum Outdoor Air Flow Rate [m3/s], 2.20200
 Component Sizing Information, Coil:Cooling:DX:TwoSpeed, VAV_POD_2_COOLC DXCOIL, Design Size High Speed Rated Air Flow Rate [m3/s], 3.77230
 Component Sizing Information, Coil:Cooling:DX:TwoSpeed, VAV_POD_2_COOLC DXCOIL, Design Size High Speed Gross Rated Total Cooling Capacity [W], 93675.18253
 Component Sizing Information, Coil:Cooling:DX:TwoSpeed, VAV_POD_2_COOLC DXCOIL, Design Size High Speed Rated Sensible Heat Ratio, 0.69808
 Component Sizing Information, Coil:Cooling:DX:TwoSpeed, VAV_POD_2_COOLC DXCOIL, Design Size Low Speed Rated Air Flow Rate [m3/s], 1.25731
 Component Sizing Information, Coil:Cooling:DX:TwoSpeed, VAV_POD_2_COOLC DXCOIL, Design Size Low Speed Gross Rated Total Cooling Capacity [W], 31221.93834
 Component Sizing Information, Coil:Cooling:DX:TwoSpeed, VAV_POD_2_COOLC DXCOIL, Design Size Low Speed Gross Rated Sensible Heat Ratio, 0.69808
 VAV DX Cooling Coil Standard Rating Information, Coil:Cooling:DX:TwoSpeed,VAV_POD_2_COOLC DXCOIL,N/A,N/A,90618.63,309203.59,11.65,2.84,3.26,3.68,3.79,9.69,11.12,12.55,12.92,4.3389,3.4886,2.3432,1.0001,
 Component Sizing Information, Coil:Heating:Water, VAV_POD_2_HEATC, Design Size Rated Capacity [W], 37724.94828
 Component Sizing Information, Coil:Heating:Water, VAV_POD_2_HEATC, Design Size Maximum Water Flow Rate [m3/s], 8.12184E-004
 Component Sizing Information, Coil:Heating:Water, VAV_POD_2_HEATC, Design Size U-Factor Times Area Value [W/K], 528.21415
Water Heating Coil Capacity Information,Coil:Heating:Water,VAV_POD_2_HEATC,26621.89
 Component Sizing Information, Fan:VariableVolume, VAV_POD_2_FAN, Design Size Maximum Flow Rate [m3/s], 3.77230
 Component Sizing Information, Controller:WaterCoil, VAV_POD_2_HEATC_CONTROLLER, Maximum Actuated Flow [m3/s], 8.12184E-004
 Component Sizing Information, Controller:OutdoorAir, VAV_POD_3_OA_CONTROLLER, Maximum Outdoor Air Flow Rate [m3/s], 3.96505
 Component Sizing Information, Controller:OutdoorAir, VAV_POD_3_OA_CONTROLLER, Minimum Outdoor Air Flow Rate [m3/s], 2.07600
 Component Sizing Information, Coil:Cooling:DX:TwoSpeed, VAV_POD_3_COOLC DXCOIL, Design Size High Speed Rated Air Flow Rate [m3/s], 3.96505
 Component Sizing Information, Coil:Cooling:DX:TwoSpeed, VAV_POD_3_COOLC DXCOIL, Design Size High Speed Gross Rated Total Cooling Capacity [W], 98461.60316
 Component Sizing Information, Coil:Cooling:DX:TwoSpeed, VAV_POD_3_COOLC DXCOIL, Design Size High Speed Rated Sensible Heat Ratio, 0.69808
 Component Sizing Information, Coil:Cooling:DX:TwoSpeed, VAV_POD_3_COOLC DXCOIL, Design Size Low Speed Rated Air Flow Rate [m3/s], 1.32155
 Component Sizing Information, Coil:Cooling:DX:TwoSpeed, VAV_POD_3_COOLC DXCOIL, Design Size Low Speed Gross Rated Total Cooling Capacity [W], 32817.25233
 Component Sizing Information, Coil:Cooling:DX:TwoSpeed, VAV_POD_3_COOLC DXCOIL, Design Size Low Speed Gross Rated Sensible Heat Ratio, 0.69808
 VAV DX Cooling Coil Standard Rating Information, Coil:Cooling:DX:TwoSpeed,VAV_POD_3_COOLC DXCOIL,N/A,N/A,95248.87,325002.64,11.65,2.84,3.26,3.68,3.79,9.69,11.12,12.55,12.92,4.5606,3.6669,2.4630,1.0512,
 Component Sizing Information, Coil:Heating:Water, VAV_POD_3_HEATC, Design Size Rated Capacity [W], 39652.53962
 Component Sizing Information, Coil:Heating:Water, VAV_POD_3_HEATC, Design Size Maximum Water Flow Rate [m3/s], 8.53683E-004
 Component Sizing Information, Coil:Heating:Water, VAV_POD_3_HEATC, Design Size U-Factor Times Area Value [W/K], 555.20374
Water Heating Coil Capacity Information,Coil:Heating:Water,VAV_POD_3_HEATC,27982.16
 Component Sizing Information, Fan:VariableVolume, VAV_POD_3_FAN, Design Size Maximum Flow Rate [m3/s], 3.96505
 Component Sizing Information, Controller:WaterCoil, VAV_POD_3_HEATC_CONTROLLER, Maximum Actuated Flow [m3/s], 8.53683E-004
Water Heater Information,WaterHeater:Mixed,SWHSYS1 WATER HEATER,1.0000,845000.0,0.693,0.5832
 Component Sizing Information, PlantLoop, HEATSYS1, Maximum Loop Flow Rate [m3/s], 1.08290E-002
 Component Sizing Information, PlantLoop, HEATSYS1, Plant Loop Volume [m3], 1.29948
 Component Sizing Information, Pump:VariableSpeed, HEATSYS1 PUMP, Design Flow Rate [m3/s], 1.08290E-002
 Component Sizing Information, Pump:VariableSpeed, HEATSYS1 PUMP, Design Power Consumption [W], 2766.66561
 Component Sizing Information, Boiler:HotWater, HEATSYS1 BOILER, Design Size Nominal Capacity [W], 504954.21220
 Component Sizing Information, Boiler:HotWater, HEATSYS1 BOILER, Design Size Design Water Flow Rate [m3/s], 1.08290E-002
 Component Sizing Information, PlantLoop, SWHSYS1, Maximum Loop Flow Rate [m3/s], 1.64400E-004
 Component Sizing Information, PlantLoop, SWHSYS1, Plant Loop Volume [m3], 1.97280E-002
 Component Sizing Information, Pump:VariableSpeed, SWHSYS1 PUMP, Design Flow Rate [m3/s], 1.64400E-004
 Component Sizing Information, Pump:VariableSpeed, SWHSYS1 PUMP, Design Power Consumption [W], 2.10769E-004
 Component Sizing Information, WaterHeater:Mixed, SWHSYS1 WATER HEATER, Use Side Design Flow Rate [m3/s], 1.64400E-004
! <Environment>,Environment Name,Environment Type, Start Date, End Date, Start DayOfWeek, Duration {#days}, Source:Start DayOfWeek,  Use Daylight Saving, Use Holidays, Apply Weekend Holiday Rule,  Use Rain Values, Use Snow Values
! <Environment:Special Days>, Special Day Name, Special Day Type, Source, Start Date, Duration {#days}
! <Environment:Daylight Saving>, Daylight Saving Indicator, Source, Start Date, End Date
! <Environment:WarmupDays>, NumberofWarmupDays
Environment,BALTIMORE MD USA TMY2-93721 WMO#=724060,WeatherFileRunPeriod,01/01,12/31,Sunday,365,Use RunPeriod Specified Day,No,No,No,Yes,Yes
Environment:Daylight Saving,Yes,InputFile,03/12,11/05
Environment:Special Days,NEW YEARS DAY,Holiday,InputFile,01/01,  1
Environment:Special Days,VETERANS DAY,Holiday,InputFile,11/11,  1
Environment:Special Days,CHRISTMAS,Holiday,InputFile,12/25,  1
Environment:Special Days,INDEPENDENCE DAY,Holiday,InputFile,07/04,  1
Environment:Special Days,MLK DAY,Holiday,InputFile,01/16,  1
Environment:Special Days,PRESIDENTS DAY,Holiday,InputFile,02/20,  1
Environment:Special Days,MEMORIAL DAY,Holiday,InputFile,05/29,  1
Environment:Special Days,LABOR DAY,Holiday,InputFile,09/04,  1
Environment:Special Days,COLUMBUS DAY,Holiday,InputFile,10/09,  1
Environment:Special Days,THANKSGIVING,Holiday,InputFile,11/23,  1
Environment:WarmupDays,  6
! <Warmup Convergence Information>,Zone Name,Environment Type/Name,Average Warmup Temperature Difference {deltaC},Std Dev Warmup Temperature Difference {deltaC},Max Temperature Pass/Fail Convergence,Min Temperature Pass/Fail Convergence,Average Warmup Load Difference {W},Std Dev Warmup Load Difference {W},Heating Load Pass/Fail Convergence,Cooling Load Pass/Fail Convergence
 Warmup Convergence Information,BATH_ZN_1_FLR_1,RunPeriod: BALTIMORE MD USA TMY2-93721 WMO#=724060,2.8035150523E-002,4.1379958909E-002,Pass,Pass,0.2275057840,0.6241660043,Pass,Pass
 Warmup Convergence Information,CAFETERIA_ZN_1_FLR_1,RunPeriod: BALTIMORE MD USA TMY2-93721 WMO#=724060,6.7653911271E-002,0.1034290711,Pass,Pass,0.1735607293,0.4967618287,Pass,Pass
 Warmup Convergence Information,COMPUTER_CLASS_ZN_1_FLR_1,RunPeriod: BALTIMORE MD USA TMY2-93721 WMO#=724060,3.2316447413E-002,4.2095148242E-002,Pass,Pass,0.2170009433,0.6459522397,Pass,Pass
 Warmup Convergence Information,CORNER_CLASS_1_POD_1_ZN_1_FLR_1,RunPeriod: BALTIMORE MD USA TMY2-93721 WMO#=724060,0.1656484957,0.2345109327,Pass,Pass,0.2775757651,0.4336859458,Pass,Pass
 Warmup Convergence Information,CORNER_CLASS_1_POD_2_ZN_1_FLR_1,RunPeriod: BALTIMORE MD USA TMY2-93721 WMO#=724060,0.1639508609,0.2318253780,Pass,Pass,0.2770516431,0.4324770340,Pass,Pass
 Warmup Convergence Information,CORNER_CLASS_1_POD_3_ZN_1_FLR_1,RunPeriod: BALTIMORE MD USA TMY2-93721 WMO#=724060,0.1639500206,0.2318050673,Pass,Pass,0.2766129661,0.4326076855,Pass,Pass
 Warmup Convergence Information,CORNER_CLASS_2_POD_1_ZN_1_FLR_1,RunPeriod: BALTIMORE MD USA TMY2-93721 WMO#=724060,0.1674749859,0.2376535502,Pass,Pass,0.2744507042,0.4326120324,Pass,Pass
 Warmup Convergence Information,CORNER_CLASS_2_POD_2_ZN_1_FLR_1,RunPeriod: BALTIMORE MD USA TMY2-93721 WMO#=724060,0.1675954926,0.2378811286,Pass,Pass,0.2746693397,0.4327673363,Pass,Pass
 Warmup Convergence Information,CORNER_CLASS_2_POD_3_ZN_1_FLR_1,RunPeriod: BALTIMORE MD USA TMY2-93721 WMO#=724060,0.1697001131,0.2409676743,Pass,Pass,0.2747083006,0.4328417788,Pass,Pass
 Warmup Convergence Information,CORRIDOR_POD_1_ZN_1_FLR_1,RunPeriod: BALTIMORE MD USA TMY2-93721 WMO#=724060,4.4871098851E-002,5.4105260837E-002,Pass,Pass,0.6175541217,4.1669398134,Pass,Pass
 Warmup Convergence Information,CORRIDOR_POD_2_ZN_1_FLR_1,RunPeriod: BALTIMORE MD USA TMY2-93721 WMO#=724060,4.4498462381E-002,5.3935068516E-002,Pass,Pass,0.5682809185,3.5944783262,Pass,Pass
 Warmup Convergence Information,CORRIDOR_POD_3_ZN_1_FLR_1,RunPeriod: BALTIMORE MD USA TMY2-93721 WMO#=724060,4.5281325904E-002,5.4723814456E-002,Pass,Pass,0.6669595140,4.7479703926,Pass,Pass
 Warmup Convergence Information,GYM_ZN_1_FLR_1,RunPeriod: BALTIMORE MD USA TMY2-93721 WMO#=724060,1.9152370225E-002,1.2389814959E-002,Pass,Pass,0.0000000000,0.0000000000,Pass,Pass
 Warmup Convergence Information,KITCHEN_ZN_1_FLR_1,RunPeriod: BALTIMORE MD USA TMY2-93721 WMO#=724060,1.1358019863E-002,6.7883257005E-003,Pass,Pass,0.0000000000,0.0000000000,Pass,Pass
 Warmup Convergence Information,LIBRARY_MEDIA_CENTER_ZN_1_FLR_1,RunPeriod: BALTIMORE MD USA TMY2-93721 WMO#=724060,2.7928710428E-002,3.1269045091E-002,Pass,Pass,0.2112669172,0.6523946079,Pass,Pass
 Warmup Convergence Information,LOBBY_ZN_1_FLR_1,RunPeriod: BALTIMORE MD USA TMY2-93721 WMO#=724060,7.8541483075E-002,0.1180312146,Pass,Pass,0.1786829721,0.5214267987,Pass,Pass
 Warmup Convergence Information,MAIN_CORRIDOR_ZN_1_FLR_1,RunPeriod: BALTIMORE MD USA TMY2-93721 WMO#=724060,3.6144373365E-002,3.9471040121E-002,Pass,Pass,0.1310557195,0.3376747550,Pass,Pass
 Warmup Convergence Information,MECH_ZN_1_FLR_1,RunPeriod: BALTIMORE MD USA TMY2-93721 WMO#=724060,4.1925776680E-002,5.0344991892E-002,Pass,Pass,0.1305490711,0.3365165942,Pass,Pass
 Warmup Convergence Information,MULT_CLASS_1_POD_1_ZN_1_FLR_1,RunPeriod: BALTIMORE MD USA TMY2-93721 WMO#=724060,4.8172927526E-002,6.3718386089E-002,Pass,Pass,0.8241070202,6.0296933099,Pass,Pass
 Warmup Convergence Information,MULT_CLASS_1_POD_2_ZN_1_FLR_1,RunPeriod: BALTIMORE MD USA TMY2-93721 WMO#=724060,4.5957148871E-002,6.1492158595E-002,Pass,Pass,0.3479436396,0.7152159243,Pass,Pass
 Warmup Convergence Information,MULT_CLASS_1_POD_3_ZN_1_FLR_1,RunPeriod: BALTIMORE MD USA TMY2-93721 WMO#=724060,4.6220108542E-002,6.1697191399E-002,Pass,Pass,0.4027796066,1.1915900231,Pass,Pass
 Warmup Convergence Information,MULT_CLASS_2_POD_1_ZN_1_FLR_1,RunPeriod: BALTIMORE MD USA TMY2-93721 WMO#=724060,4.1815313357E-002,5.5530606765E-002,Pass,Pass,0.6663392644,3.7424297115,Pass,Pass
 Warmup Convergence Information,MULT_CLASS_2_POD_2_ZN_1_FLR_1,RunPeriod: BALTIMORE MD USA TMY2-93721 WMO#=724060,4.1985950545E-002,5.5643646971E-002,Pass,Pass,0.4156605679,1.0262149435,Pass,Pass
 Warmup Convergence Information,MULT_CLASS_2_POD_3_ZN_1_FLR_1,RunPeriod: BALTIMORE MD USA TMY2-93721 WMO#=724060,4.4238542822E-002,5.8194777722E-002,Pass,Pass,0.3630236562,0.7135350757,Pass,Pass
 Warmup Convergence Information,OFFICES_ZN_1_FLR_1,RunPeriod: BALTIMORE MD USA TMY2-93721 WMO#=724060,3.4718610689E-002,3.7327169025E-002,Pass,Pass,0.1923295543,0.5736646693,Pass,Pass
! <Program Control Information:Threads/Parallel Sims>, Threading Supported,Maximum Number of Threads, Env Set Threads (OMP_NUM_THREADS), EP Env Set Threads (EP_OMP_NUM_THREADS), IDF Set Threads, Number of Threads Used (Interior Radiant Exchange), Number Nominal Surfaces, Number Parallel Sims
Program Control:Threads/Parallel Sims, No,1, N/A, N/A, N/A, N/A, N/A, N/A
End of Data
