Program Version,EnergyPlus, Version 8.8.0-7c3bbe4830, YMD=2018.08.31 07:47
! <Version>, Version ID
 Version, 8.8
! <Timesteps per Hour>, #TimeSteps, Minutes per TimeStep {minutes}
 Timesteps per Hour,  6, 10
! <System Convergence Limits>, Minimum System TimeStep {minutes}, Max HVAC Iterations, Minimum Plant Iterations, Maximum Plant Iterations
 System Convergence Limits, 2, 25, 2, 8
! <Simulation Control>, Do Zone Sizing, Do System Sizing, Do Plant Sizing, Do Design Days, Do Weather Simulation, Do HVAC Sizing Simulation
 Simulation Control, Yes, Yes, Yes, No, Yes, No
! <Output Reporting Tolerances>, Tolerance for Time Heating Setpoint Not Met, Tolerance for Zone Cooling Setpoint Not Met Time
 Output Reporting Tolerances, 0.556, 0.556, 
! <Site:GroundTemperature:BuildingSurface>,Jan{C},Feb{C},Mar{C},Apr{C},May{C},Jun{C},Jul{C},Aug{C},Sep{C},Oct{C},Nov{C},Dec{C}
 Site:GroundTemperature:BuildingSurface,  19.71,  19.66,  19.71,  19.75,  20.49,  22.11,  22.46,  22.55,  22.17,  20.61,  20.05,  19.80
! <Site:GroundTemperature:FCfactorMethod>,Jan{C},Feb{C},Mar{C},Apr{C},May{C},Jun{C},Jul{C},Aug{C},Sep{C},Oct{C},Nov{C},Dec{C}
 Site:GroundTemperature:FCfactorMethod,   2.18,   1.16,   2.97,   5.81,  13.21,  18.93,  22.79,  23.96,  21.96,  17.52,  11.59,   6.09
! <Site:GroundTemperature:Shallow>,Jan{C},Feb{C},Mar{C},Apr{C},May{C},Jun{C},Jul{C},Aug{C},Sep{C},Oct{C},Nov{C},Dec{C}
 Site:GroundTemperature:Shallow,  13.00,  13.00,  13.00,  13.00,  13.00,  13.00,  13.00,  13.00,  13.00,  13.00,  13.00,  13.00
! <Site:GroundTemperature:Deep>,Jan{C},Feb{C},Mar{C},Apr{C},May{C},Jun{C},Jul{C},Aug{C},Sep{C},Oct{C},Nov{C},Dec{C}
 Site:GroundTemperature:Deep,  16.00,  16.00,  16.00,  16.00,  16.00,  16.00,  16.00,  16.00,  16.00,  16.00,  16.00,  16.00
! <Site:GroundReflectance>,Jan{dimensionless},Feb{dimensionless},Mar{dimensionless},Apr{dimensionless},May{dimensionless},Jun{dimensionless},Jul{dimensionless},Aug{dimensionless},Sep{dimensionless},Oct{dimensionless},Nov{dimensionless},Dec{dimensionless}
 Site:GroundReflectance,  0.20,  0.20,  0.20,  0.20,  0.20,  0.20,  0.20,  0.20,  0.20,  0.20,  0.20,  0.20
! <Site:GroundReflectance:SnowModifier>, Normal, Daylighting {dimensionless}
 Site:GroundReflectance:SnowModifier,   1.000,   1.000
! <Site:GroundReflectance:Snow>,Jan{dimensionless},Feb{dimensionless},Mar{dimensionless},Apr{dimensionless},May{dimensionless},Jun{dimensionless},Jul{dimensionless},Aug{dimensionless},Sep{dimensionless},Oct{dimensionless},Nov{dimensionless},Dec{dimensionless}
 Site:GroundReflectance:Snow,  0.20,  0.20,  0.20,  0.20,  0.20,  0.20,  0.20,  0.20,  0.20,  0.20,  0.20,  0.20
! <Site:GroundReflectance:Snow:Daylighting>,Jan{dimensionless},Feb{dimensionless},Mar{dimensionless},Apr{dimensionless},May{dimensionless},Jun{dimensionless},Jul{dimensionless},Aug{dimensionless},Sep{dimensionless},Oct{dimensionless},Nov{dimensionless},Dec{dimensionless}
 Site:GroundReflectance:Snow:Daylighting,  0.20,  0.20,  0.20,  0.20,  0.20,  0.20,  0.20,  0.20,  0.20,  0.20,  0.20,  0.20
! <Environment:Weather Station>,Wind Sensor Height Above Ground {m},Wind Speed Profile Exponent {},Wind Speed Profile Boundary Layer Thickness {m},Air Temperature Sensor Height Above Ground {m},Wind Speed Modifier Coefficient-Internal,Temperature Modifier Coefficient-Internal
Environment:Weather Station,10.000,0.140,270.000,1.500,1.586,9.750E-003
! <Site:Location>, Location Name, Latitude {N+/S- Deg}, Longitude {E+/W- Deg},  Time Zone Number {GMT+/-}, Elevation {m},  Standard Pressure at Elevation {Pa}, Standard RhoAir at Elevation
Site:Location,BALTIMORE MD USA TMY2-93721 WMO#=724060,39.18,-76.67,-5.00,47.00,100762,1.1976
! <Building Information>, Building Name,North Axis {deg},Terrain,  Loads Convergence Tolerance Value,Temperature Convergence Tolerance Value,  Solar Distribution,Maximum Number of Warmup Days,Minimum Number of Warmup Days
 Building Information,Ref Bldg OutPatient New2004_v1.3_5.0,0.000,City,4.00000E-002,0.20000,FullInteriorAndExterior,25,6
! <Inside Convection Algorithm>, Algorithm {Simple | TARP | CeilingDiffuser | AdaptiveConvectionAlgorithm}
Inside Convection Algorithm,TARP
! <Outside Convection Algorithm>, Algorithm {SimpleCombined | TARP | MoWitt | DOE-2 | AdaptiveConvectionAlgorithm}
Outside Convection Algorithm,DOE-2
! <Sky Radiance Distribution>, Value {Anisotropic}
Sky Radiance Distribution,Anisotropic
! <Zone Air Solution Algorithm>, Value {ThirdOrderBackwardDifference | AnalyticalSolution | EulerMethod}
 Zone Air Solution Algorithm, AnalyticalSolution
! <Zone Air Carbon Dioxide Balance Simulation>, Simulation {Yes/No}, Carbon Dioxide Concentration
 Zone Air Carbon Dioxide Balance Simulation, No,N/A
! <Zone Air Generic Contaminant Balance Simulation>, Simulation {Yes/No}, Generic Contaminant Concentration
 Zone Air Generic Contaminant Balance Simulation, No,N/A
! <Zone Air Mass Flow Balance Simulation>, Enforce Mass Balance, Adjust Zone Mixing, Adjust Zone Infiltration {AddInfiltration | AdjustInfiltration | None}, Infiltration Zones {MixingSourceZonesOnly | AllZones}
 Zone Air Mass Flow Balance Simulation, No,N/A,N/A,N/A
! <HVACSystemRootFindingAlgorithm>, Value {RegulaFalsi | Bisection | BisectionThenRegulaFalsi | RegulaFalsiThenBisection}
 HVACSystemRootFindingAlgorithm, RegulaFalsi
! <Environment:Site Atmospheric Variation>,Wind Speed Profile Exponent {},Wind Speed Profile Boundary Layer Thickness {m},Air Temperature Gradient Coefficient {K/m}
Environment:Site Atmospheric Variation,0.330,460.000,6.500000E-003
! <Surface Geometry>,Starting Corner,Vertex Input Direction,Coordinate System,Daylight Reference Point Coordinate System,Rectangular (Simple) Surface Coordinate System
 Surface Geometry,UpperLeftCorner,Counterclockwise,RelativeCoordinateSystem,RelativeCoordinateSystem,RelativeToZoneOrigin
! <Surface Heat Transfer Algorithm>, Value {CTF - ConductionTransferFunction | EMPD - MoisturePenetrationDepthConductionTransferFunction | CondFD - ConductionFiniteDifference | HAMT - CombinedHeatAndMoistureFiniteElement} - Description,Inside Surface Max Temperature Limit{C}, Surface Convection Coefficient Lower Limit {W/m2-K}, Surface Convection Coefficient Upper Limit {W/m2-K}
Surface Heat Transfer Algorithm, CTF - ConductionTransferFunction,200,0.10,1000.0
! <Shading Summary>, Number of Fixed Detached Shades, Number of Building Detached Shades, Number of Attached Shades
 Shading Summary,0,0,0
! <Zone Summary>, Number of Zones, Number of Zone Surfaces, Number of SubSurfaces
 Zone Summary,118,989,100
! <Zone Information>,Zone Name,North Axis {deg},Origin X-Coordinate {m},Origin Y-Coordinate {m},Origin Z-Coordinate {m},Centroid X-Coordinate {m},Centroid Y-Coordinate {m},Centroid Z-Coordinate {m},Type,Zone Multiplier,Zone List Multiplier,Minimum X {m},Maximum X {m},Minimum Y {m},Maximum Y {m},Minimum Z {m},Maximum Z {m},Ceiling Height {m},Volume {m3},Zone Inside Convection Algorithm {Simple-Detailed-CeilingDiffuser-TrombeWall},Zone Outside Convection Algorithm {Simple-Detailed-Tarp-MoWitt-DOE-2-BLAST}, Floor Area {m2},Exterior Gross Wall Area {m2},Exterior Net Wall Area {m2},Exterior Window Area {m2}, Number of Surfaces, Number of SubSurfaces, Number of Shading SubSurfaces,  Part of Total Building Area
 Zone Information, FLOOR 1 ANESTHESIA,0.0,39.32,0.00,0.00,40.69,1.83,1.52,1,1,1,39.32,42.06,0.00,3.66,0.00,3.05,3.05,30.58,TARP,DOE-2,10.03,8.36,6.13,2.23,6,1,0,Yes
 Zone Information, FLOOR 1 BIO HAZ,0.0,39.32,25.91,0.00,41.00,27.13,1.52,1,1,1,39.93,42.06,25.91,28.35,0.00,3.05,3.05,15.86,TARP,DOE-2,5.20,0.00,0.00,0.00,6,0,0,Yes
 Zone Information, FLOOR 1 CAFE,0.0,0.00,19.20,0.00,8.84,12.34,1.52,1,1,1,5.79,11.89,9.14,15.54,0.00,3.05,3.05,118.93,TARP,DOE-2,39.02,18.58,9.66,8.92,7,1,0,Yes
 Zone Information, FLOOR 1 CLEAN,0.0,29.26,8.84,0.00,30.63,10.97,1.52,1,1,1,29.26,32.00,8.84,13.11,0.00,3.05,3.05,35.68,TARP,DOE-2,11.71,0.00,0.00,0.00,6,0,0,Yes
 Zone Information, FLOOR 1 CLEAN WORK,0.0,42.06,9.75,0.00,39.78,11.43,1.52,1,1,1,37.49,42.06,9.75,13.11,0.00,3.05,3.05,46.72,TARP,DOE-2,15.33,0.00,0.00,0.00,6,0,0,Yes
 Zone Information, FLOOR 1 DICTATION,0.0,32.00,8.84,0.00,33.38,10.97,1.52,1,1,1,32.00,34.75,8.84,13.11,0.00,3.05,3.05,35.68,TARP,DOE-2,11.71,0.00,0.00,0.00,6,0,0,Yes
 Zone Information, FLOOR 1 DRESSING ROOM,0.0,15.54,28.35,0.00,14.17,27.58,1.52,1,1,1,12.80,15.54,26.82,28.35,0.00,3.05,3.05,12.74,TARP,DOE-2,4.18,8.36,6.04,2.32,6,1,0,Yes
 Zone Information, FLOOR 1 ELECTRICAL ROOM,0.0,50.60,18.59,0.00,48.46,19.66,1.52,1,1,1,46.33,50.60,18.59,20.73,0.00,3.05,3.05,27.75,TARP,DOE-2,9.10,6.50,6.50,0.00,6,0,0,Yes
 Zone Information, FLOOR 1 ELEVATOR PUMP ROOM,0.0,3.96,28.35,0.00,1.98,27.28,1.52,1,1,1,0.00,3.96,26.21,28.35,0.00,3.05,3.05,25.77,TARP,DOE-2,8.45,18.58,18.58,0.00,6,0,0,Yes
 Zone Information, FLOOR 1 HUMID,0.0,32.00,14.94,0.00,30.63,14.02,1.52,1,1,1,29.26,32.00,13.11,14.94,0.00,3.05,3.05,15.29,TARP,DOE-2,5.02,0.00,0.00,0.00,6,0,0,Yes
 Zone Information, FLOOR 1 IT HALL,0.0,33.53,25.91,0.00,37.80,25.15,1.52,1,1,1,33.53,42.06,24.38,25.91,0.00,3.05,3.05,39.64,TARP,DOE-2,13.01,0.00,0.00,0.00,6,0,0,Yes
 Zone Information, FLOOR 1 IT ROOM,0.0,37.19,28.35,0.00,35.66,27.13,1.52,1,1,1,33.53,37.80,25.91,28.35,0.00,3.05,3.05,31.71,TARP,DOE-2,10.41,0.00,0.00,0.00,6,0,0,Yes
 Zone Information, FLOOR 1 LOBBY,0.0,2.13,24.38,0.00,4.19,21.59,1.52,1,1,1,2.13,6.40,11.58,28.35,0.00,3.05,3.05,176.13,TARP,DOE-2,57.79,20.44,11.52,8.92,13,1,0,Yes
 Zone Information, FLOOR 1 LOBBY HALL,0.0,11.89,19.20,0.00,8.84,17.37,1.52,1,1,1,5.79,11.89,15.54,19.20,0.00,3.05,3.05,67.96,TARP,DOE-2,22.30,0.00,0.00,0.00,6,0,0,Yes
 Zone Information, FLOOR 1 LOBBY TOILET,0.0,0.00,26.21,0.00,1.37,25.30,1.52,1,1,1,0.00,2.74,24.38,26.21,0.00,3.05,3.05,15.29,TARP,DOE-2,5.02,5.57,5.57,0.00,7,0,0,Yes
 Zone Information, FLOOR 1 LOCKER ROOM,0.0,29.87,28.35,0.00,26.52,23.77,1.52,1,1,1,23.16,29.87,19.20,28.35,0.00,3.05,3.05,186.89,TARP,DOE-2,61.32,20.44,14.86,5.57,7,2,0,Yes
 Zone Information, FLOOR 1 LOCKER ROOM HALL,0.0,23.16,19.20,0.00,32.61,17.98,1.52,1,1,1,23.16,42.06,16.76,19.20,0.00,3.05,3.05,140.45,TARP,DOE-2,46.08,0.00,0.00,0.00,6,0,0,Yes
 Zone Information, FLOOR 1 LOUNGE,0.0,29.87,19.20,0.00,31.70,23.77,1.52,1,1,1,29.87,33.53,19.20,28.35,0.00,3.05,3.05,101.94,TARP,DOE-2,33.45,0.00,0.00,0.00,6,0,0,Yes
 Zone Information, FLOOR 1 MRI CONTROL ROOM,0.0,12.80,28.35,0.00,9.60,27.13,1.52,1,1,1,6.40,12.80,25.91,28.35,0.00,3.05,3.05,47.57,TARP,DOE-2,15.61,4.65,4.65,0.00,7,0,0,Yes
 Zone Information, FLOOR 1 MRI HALL,0.0,11.89,25.91,0.00,14.50,25.26,1.52,1,1,1,11.89,17.37,23.77,26.82,0.00,3.05,3.05,41.63,TARP,DOE-2,13.66,0.00,0.00,0.00,11,0,0,Yes
 Zone Information, FLOOR 1 MRI ROOM,0.0,6.71,25.91,0.00,8.84,22.56,1.52,1,1,1,5.79,11.89,19.20,25.91,0.00,3.05,3.05,124.59,TARP,DOE-2,40.88,0.00,0.00,0.00,8,0,0,Yes
 Zone Information, FLOOR 1 MRI TOILET,0.0,17.37,28.35,0.00,16.46,26.97,1.52,1,1,1,15.54,17.37,25.60,28.35,0.00,3.05,3.05,15.29,TARP,DOE-2,5.02,5.57,5.57,0.00,6,0,0,Yes
 Zone Information, FLOOR 1 MED GAS,0.0,44.50,33.22,0.00,43.28,34.29,1.52,1,1,1,42.06,44.50,33.22,35.36,0.00,3.05,3.05,15.86,TARP,DOE-2,5.20,13.94,13.94,0.00,6,0,0,Yes
 Zone Information, FLOOR 1 NOURISHMENT,0.0,27.13,16.76,0.00,28.19,12.80,1.52,1,1,1,27.13,29.26,8.84,16.76,0.00,3.05,3.05,51.54,TARP,DOE-2,16.91,0.00,0.00,0.00,6,0,0,Yes
 Zone Information, FLOOR 1 NURSE HALL,0.0,39.32,3.66,0.00,32.61,4.88,1.52,1,1,1,23.16,42.06,3.66,6.10,0.00,3.05,3.05,140.45,TARP,DOE-2,46.08,0.00,0.00,0.00,6,0,0,Yes
 Zone Information, FLOOR 1 NURSE JANITOR,0.0,29.26,16.76,0.00,30.63,15.85,1.52,1,1,1,29.26,32.00,14.94,16.76,0.00,3.05,3.05,15.29,TARP,DOE-2,5.02,0.00,0.00,0.00,6,0,0,Yes
 Zone Information, FLOOR 1 NURSE STATION,0.0,32.00,8.84,0.00,27.58,7.47,1.52,1,1,1,23.16,32.00,6.10,8.84,0.00,3.05,3.05,73.91,TARP,DOE-2,24.25,0.00,0.00,0.00,6,0,0,Yes
 Zone Information, FLOOR 1 NURSE TOILET,0.0,37.49,8.84,0.00,36.58,7.47,1.52,1,1,1,35.66,37.49,6.10,8.84,0.00,3.05,3.05,15.29,TARP,DOE-2,5.02,0.00,0.00,0.00,6,0,0,Yes
 Zone Information, FLOOR 1 OFFICE,0.0,14.63,15.85,0.00,17.53,20.27,1.52,1,1,1,14.33,20.73,16.76,23.77,0.00,3.05,3.05,136.77,TARP,DOE-2,44.87,0.00,0.00,0.00,6,0,0,Yes
 Zone Information, FLOOR 1 OPERATING ROOM 1,0.0,44.81,0.00,0.00,47.55,3.51,1.52,1,1,1,44.50,50.60,0.00,7.01,0.00,3.05,3.05,130.26,TARP,DOE-2,42.74,39.95,31.03,8.92,6,4,0,Yes
 Zone Information, FLOOR 1 OPERATING ROOM 2,0.0,50.60,11.28,0.00,47.55,14.94,1.52,1,1,1,44.50,50.60,11.28,18.59,0.00,3.05,3.05,135.92,TARP,DOE-2,44.59,22.30,15.61,6.69,6,3,0,Yes
 Zone Information, FLOOR 1 OPERATING ROOM 3,0.0,33.53,19.20,0.00,37.80,21.79,1.52,1,1,1,33.53,42.06,19.20,24.38,0.00,3.05,3.05,134.79,TARP,DOE-2,44.22,0.00,0.00,0.00,7,0,0,Yes
 Zone Information, FLOOR 1 PACU,0.0,35.66,8.84,0.00,33.83,7.47,1.52,1,1,1,32.00,35.66,6.10,8.84,0.00,3.05,3.05,30.58,TARP,DOE-2,10.03,0.00,0.00,0.00,6,0,0,Yes
 Zone Information, FLOOR 1 PRE-OP HALL,0.0,20.73,23.77,0.00,21.95,13.72,1.52,1,1,1,20.73,23.16,3.66,23.77,0.00,3.05,3.05,149.51,TARP,DOE-2,49.05,0.00,0.00,0.00,6,0,0,Yes
 Zone Information, FLOOR 1 PRE-OP ROOM 1,0.0,17.98,13.41,0.00,19.35,11.13,1.52,1,1,1,17.98,20.73,7.92,14.33,0.00,3.05,3.05,53.52,TARP,DOE-2,17.56,3.72,3.72,0.00,7,0,0,Yes
 Zone Information, FLOOR 1 PRE-OP ROOM 2,0.0,24.38,8.84,0.00,25.15,12.80,1.52,1,1,1,23.16,27.13,8.84,16.76,0.00,3.05,3.05,95.71,TARP,DOE-2,31.40,0.00,0.00,0.00,6,0,0,Yes
 Zone Information, FLOOR 1 PRE-OP TOILET,0.0,17.98,5.49,0.00,19.35,4.57,1.52,1,1,1,17.98,20.73,3.66,5.49,0.00,3.05,3.05,15.29,TARP,DOE-2,5.02,5.57,5.57,0.00,6,0,0,Yes
 Zone Information, FLOOR 1 PROCEDURE ROOM,0.0,22.86,28.35,0.00,20.27,26.06,1.52,1,1,1,17.37,23.16,23.77,28.35,0.00,3.05,3.05,80.70,TARP,DOE-2,26.48,17.65,12.08,5.57,6,2,0,Yes
 Zone Information, FLOOR 1 RECEPTION,0.0,9.75,9.14,0.00,13.78,16.35,1.52,1,1,1,11.89,15.85,9.14,23.77,0.00,3.05,3.05,144.13,TARP,DOE-2,47.29,12.08,8.73,3.34,8,1,0,Yes
 Zone Information, FLOOR 1 RECEPTION HALL,0.0,20.73,14.33,0.00,18.29,15.54,1.52,1,1,1,15.85,20.73,14.33,16.76,0.00,3.05,3.05,36.25,TARP,DOE-2,11.89,0.00,0.00,0.00,6,0,0,Yes
 Zone Information, FLOOR 1 RECOVERY ROOM,0.0,20.42,0.00,0.00,32.46,1.83,1.52,1,1,1,25.60,39.32,0.00,3.66,0.00,3.05,3.05,152.91,TARP,DOE-2,50.17,41.81,32.89,8.92,6,4,0,Yes
 Zone Information, FLOOR 1 SCHEDULING,0.0,15.85,9.14,0.00,16.92,11.73,1.52,1,1,1,15.85,17.98,9.14,14.33,0.00,3.05,3.05,33.70,TARP,DOE-2,11.06,6.50,5.76,0.74,6,1,0,Yes
 Zone Information, FLOOR 1 SCRUB,0.0,44.50,11.28,0.00,45.42,9.14,1.52,1,1,1,44.50,46.33,7.01,11.28,0.00,3.05,3.05,23.79,TARP,DOE-2,7.80,0.00,0.00,0.00,6,0,0,Yes
 Zone Information, FLOOR 1 SOIL,0.0,34.75,13.11,0.00,36.12,10.97,1.52,1,1,1,34.75,37.49,8.84,13.11,0.00,3.05,3.05,35.68,TARP,DOE-2,11.71,0.00,0.00,0.00,6,0,0,Yes
 Zone Information, FLOOR 1 SOIL HOLD,0.0,37.19,25.91,0.00,38.86,27.13,1.52,1,1,1,37.80,39.93,25.91,28.35,0.00,3.05,3.05,15.86,TARP,DOE-2,5.20,0.00,0.00,0.00,6,0,0,Yes
 Zone Information, FLOOR 1 SOIL WORK,0.0,42.06,6.10,0.00,39.78,7.92,1.52,1,1,1,37.49,42.06,6.10,9.75,0.00,3.05,3.05,50.97,TARP,DOE-2,16.72,0.00,0.00,0.00,6,0,0,Yes
 Zone Information, FLOOR 1 STEP DOWN,0.0,20.42,0.00,0.00,21.79,1.83,1.52,1,1,1,17.98,25.60,0.00,3.66,0.00,3.05,3.05,84.95,TARP,DOE-2,27.87,34.37,27.69,6.69,6,3,0,Yes
 Zone Information, FLOOR 1 STERILE HALL,0.0,42.06,0.00,0.00,43.28,11.73,1.52,1,1,1,42.06,44.50,0.00,23.47,0.00,3.05,3.05,174.43,TARP,DOE-2,57.23,7.43,5.20,2.23,6,1,0,Yes
 Zone Information, FLOOR 1 STERILE STORAGE,0.0,32.00,13.11,0.00,37.03,14.94,1.52,1,1,1,32.00,42.06,13.11,16.76,0.00,3.05,3.05,112.13,TARP,DOE-2,36.79,0.00,0.00,0.00,6,0,0,Yes
 Zone Information, FLOOR 1 STORAGE,0.0,41.45,35.36,0.00,35.97,31.85,1.52,1,1,1,29.87,42.06,28.35,35.36,0.00,3.05,3.05,260.51,TARP,DOE-2,85.47,58.53,47.19,8.36,6,4,0,Yes
 Zone Information, FLOOR 1 SUB-STERILE,0.0,50.60,7.01,0.00,48.46,9.14,1.52,1,1,1,46.33,50.60,7.01,11.28,0.00,3.05,3.05,55.50,TARP,DOE-2,18.21,13.01,10.03,2.97,6,1,0,Yes
 Zone Information, FLOOR 1 UTILITY HALL,0.0,44.50,28.96,0.00,43.28,28.35,1.52,1,1,1,42.06,44.50,23.47,33.22,0.00,3.05,3.05,72.49,TARP,DOE-2,23.78,14.86,8.92,0.00,9,1,0,Yes
 Zone Information, FLOOR 1 UTILITY JANITOR,0.0,44.50,20.73,0.00,45.42,19.66,1.52,1,1,1,44.50,46.33,18.59,20.73,0.00,3.05,3.05,11.89,TARP,DOE-2,3.90,0.00,0.00,0.00,6,0,0,Yes
 Zone Information, FLOOR 1 UTILITY ROOM,0.0,50.60,20.73,0.00,47.55,23.47,1.52,1,1,1,44.50,50.60,20.73,26.21,0.00,3.05,3.05,101.94,TARP,DOE-2,33.45,16.72,11.52,2.23,7,2,0,Yes
 Zone Information, FLOOR 1 VESTIBULE,0.0,17.98,7.92,0.00,19.35,6.71,1.52,1,1,1,17.98,20.73,5.49,7.92,0.00,3.05,3.05,20.39,TARP,DOE-2,6.69,7.43,4.46,0.00,6,1,0,Yes
 Zone Information, FLOOR 2 CONFERENCE,0.0,50.60,0.00,3.05,46.33,1.83,4.57,1,1,1,42.06,50.60,0.00,3.66,3.05,6.10,3.05,95.14,TARP,DOE-2,31.22,37.16,28.24,8.92,6,2,0,Yes
 Zone Information, FLOOR 2 CONFERENCE TOILET,0.0,44.50,6.10,3.05,43.28,4.88,4.57,1,1,1,42.06,44.50,3.66,6.10,3.05,6.10,3.05,18.12,TARP,DOE-2,5.95,0.00,0.00,0.00,6,0,0,Yes
 Zone Information, FLOOR 2 DICTATION,0.0,42.06,9.14,3.05,41.00,7.62,4.57,1,1,1,39.93,42.06,6.10,9.14,3.05,6.10,3.05,19.82,TARP,DOE-2,6.50,0.00,0.00,0.00,6,0,0,Yes
 Zone Information, FLOOR 2 EXAM 1,0.0,17.98,0.00,3.05,19.81,4.57,4.57,1,1,1,17.98,21.64,0.00,9.14,3.05,6.10,3.05,101.94,TARP,DOE-2,33.45,39.02,30.10,8.92,6,4,0,Yes
 Zone Information, FLOOR 2 EXAM 2,0.0,23.47,0.00,3.05,26.21,4.57,4.57,1,1,1,23.47,28.96,0.00,9.14,3.05,6.10,3.05,152.91,TARP,DOE-2,50.17,16.72,13.01,3.72,6,1,0,Yes
 Zone Information, FLOOR 2 EXAM 3,0.0,30.78,0.00,3.05,34.44,4.57,4.57,1,1,1,30.78,38.10,0.00,9.14,3.05,6.10,3.05,203.88,TARP,DOE-2,66.89,22.30,16.35,5.95,6,1,0,Yes
 Zone Information, FLOOR 2 EXAM 4,0.0,39.93,0.00,3.05,41.00,1.83,4.57,1,1,1,39.93,42.06,0.00,3.66,3.05,6.10,3.05,23.79,TARP,DOE-2,7.80,6.50,4.27,2.23,6,1,0,Yes
 Zone Information, FLOOR 2 EXAM 5,0.0,50.60,18.59,3.05,48.46,22.40,4.57,1,1,1,46.33,50.60,18.59,26.21,3.05,6.10,3.05,99.11,TARP,DOE-2,32.52,23.23,17.28,5.95,6,2,0,Yes
 Zone Information, FLOOR 2 EXAM 6,0.0,44.50,28.35,3.05,42.21,26.06,4.57,1,1,1,39.93,44.50,23.77,28.35,3.05,6.10,3.05,63.71,TARP,DOE-2,20.90,13.94,9.75,4.18,7,1,0,Yes
 Zone Information, FLOOR 2 EXAM 7,0.0,38.10,28.35,3.05,34.44,23.32,4.57,1,1,1,30.78,38.10,18.29,28.35,3.05,6.10,3.05,224.27,TARP,DOE-2,73.58,22.30,16.72,5.57,6,2,0,Yes
 Zone Information, FLOOR 2 EXAM 8,0.0,28.96,28.35,3.05,26.21,26.06,4.57,1,1,1,23.47,28.96,23.77,28.35,3.05,6.10,3.05,76.46,TARP,DOE-2,25.08,16.72,11.15,5.57,6,2,0,Yes
 Zone Information, FLOOR 2 EXAM 9,0.0,21.64,28.35,3.05,19.81,23.32,4.57,1,1,1,17.98,21.64,18.29,28.35,3.05,6.10,3.05,112.13,TARP,DOE-2,36.79,11.15,8.36,2.79,6,1,0,Yes
 Zone Information, FLOOR 2 EXAM HALL 1,0.0,21.64,0.00,3.05,22.56,4.57,4.57,1,1,1,21.64,23.47,0.00,9.14,3.05,6.10,3.05,50.97,TARP,DOE-2,16.72,5.57,5.57,0.00,6,0,0,Yes
 Zone Information, FLOOR 2 EXAM HALL 2,0.0,28.96,0.00,3.05,29.87,4.57,4.57,1,1,1,28.96,30.78,0.00,9.14,3.05,6.10,3.05,50.97,TARP,DOE-2,16.72,5.57,5.57,0.00,6,0,0,Yes
 Zone Information, FLOOR 2 EXAM HALL 3,0.0,38.10,0.00,3.05,39.01,4.57,4.57,1,1,1,38.10,39.93,0.00,9.14,3.05,6.10,3.05,50.97,TARP,DOE-2,16.72,5.57,5.57,0.00,6,0,0,Yes
 Zone Information, FLOOR 2 EXAM HALL 4,0.0,39.93,28.35,3.05,39.01,23.32,4.57,1,1,1,38.10,39.93,18.29,28.35,3.05,6.10,3.05,56.07,TARP,DOE-2,18.39,5.57,5.57,0.00,6,0,0,Yes
 Zone Information, FLOOR 2 EXAM HALL 5,0.0,30.78,28.35,3.05,29.87,23.32,4.57,1,1,1,28.96,30.78,18.29,28.35,3.05,6.10,3.05,56.07,TARP,DOE-2,18.39,5.57,5.57,0.00,6,0,0,Yes
 Zone Information, FLOOR 2 EXAM HALL 6,0.0,23.47,28.35,3.05,22.56,23.32,4.57,1,1,1,21.64,23.47,18.29,28.35,3.05,6.10,3.05,56.07,TARP,DOE-2,18.39,5.57,5.57,0.00,6,0,0,Yes
 Zone Information, FLOOR 2 JANITOR,0.0,0.00,28.35,3.05,1.37,27.28,4.57,1,1,1,0.00,2.74,26.21,28.35,3.05,6.10,3.05,17.84,TARP,DOE-2,5.85,14.86,14.86,0.00,6,0,0,Yes
 Zone Information, FLOOR 2 LOUNGE,0.0,44.50,9.14,3.05,43.28,7.62,4.57,1,1,1,42.06,44.50,6.10,9.14,3.05,6.10,3.05,22.65,TARP,DOE-2,7.43,0.00,0.00,0.00,6,0,0,Yes
 Zone Information, FLOOR 2 NURSE STATION 1,0.0,39.01,21.34,3.05,42.21,19.81,4.57,1,1,1,39.93,44.50,18.29,21.34,3.05,6.10,3.05,42.48,TARP,DOE-2,13.94,0.00,0.00,0.00,6,0,0,Yes
 Zone Information, FLOOR 2 NURSE STATION 2,0.0,23.47,21.34,3.05,26.21,19.81,4.57,1,1,1,23.47,28.96,18.29,21.34,3.05,6.10,3.05,50.97,TARP,DOE-2,16.72,0.00,0.00,0.00,6,0,0,Yes
 Zone Information, FLOOR 2 OFFICE,0.0,50.60,3.66,3.05,48.46,9.75,4.57,1,1,1,46.33,50.60,3.66,15.85,3.05,6.10,3.05,158.57,TARP,DOE-2,52.03,37.16,28.24,8.92,6,4,0,Yes
 Zone Information, FLOOR 2 OFFICE HALL,0.0,46.33,3.66,3.05,45.42,14.94,4.57,1,1,1,44.50,46.33,3.66,26.21,3.05,6.10,3.05,125.73,TARP,DOE-2,41.25,0.00,0.00,0.00,6,0,0,Yes
 Zone Information, FLOOR 2 RECEPTION,0.0,2.13,16.46,3.05,8.45,12.65,4.57,1,1,1,2.13,15.85,9.14,16.46,3.05,6.10,3.05,278.64,TARP,DOE-2,91.42,45.52,28.80,16.72,8,3,0,Yes
 Zone Information, FLOOR 2 RECEPTION HALL,0.0,17.98,9.14,3.05,30.18,10.06,4.57,1,1,1,15.85,44.50,9.14,10.97,3.05,6.10,3.05,159.71,TARP,DOE-2,52.40,87.33,87.33,0.00,6,0,0,Yes
 Zone Information, FLOOR 2 RECEPTION TOILET,0.0,17.98,10.97,3.05,16.92,13.72,4.57,1,1,1,15.85,17.98,10.97,16.46,3.05,6.10,3.05,35.68,TARP,DOE-2,11.71,0.00,0.00,0.00,6,0,0,Yes
 Zone Information, FLOOR 2 SCHEDULING 1,0.0,44.50,16.46,3.05,41.76,13.72,4.57,1,1,1,39.01,44.50,10.97,16.46,3.05,6.10,3.05,91.75,TARP,DOE-2,30.10,0.00,0.00,0.00,6,0,0,Yes
 Zone Information, FLOOR 2 SCHEDULING 2,0.0,23.77,16.46,3.05,20.88,13.72,4.57,1,1,1,17.98,23.77,10.97,16.46,3.05,6.10,3.05,96.84,TARP,DOE-2,31.77,0.00,0.00,0.00,6,0,0,Yes
 Zone Information, FLOOR 2 STORAGE 1,0.0,42.06,3.66,3.05,41.00,4.88,4.57,1,1,1,39.93,42.06,3.66,6.10,3.05,6.10,3.05,15.86,TARP,DOE-2,5.20,0.00,0.00,0.00,6,0,0,Yes
 Zone Information, FLOOR 2 STORAGE 2,0.0,39.01,23.77,3.05,42.21,22.56,4.57,1,1,1,39.93,44.50,21.34,23.77,3.05,6.10,3.05,33.98,TARP,DOE-2,11.15,0.00,0.00,0.00,6,0,0,Yes
 Zone Information, FLOOR 2 STORAGE 3,0.0,23.47,21.34,3.05,26.21,22.56,4.57,1,1,1,23.47,28.96,21.34,23.77,3.05,6.10,3.05,40.78,TARP,DOE-2,13.38,0.00,0.00,0.00,6,0,0,Yes
 Zone Information, FLOOR 2 UTILITY,0.0,50.60,18.59,3.05,48.46,17.22,4.57,1,1,1,46.33,50.60,15.85,18.59,3.05,6.10,3.05,35.68,TARP,DOE-2,11.71,8.36,6.13,2.23,6,1,0,Yes
 Zone Information, FLOOR 2 WORK,0.0,17.98,28.35,3.05,8.45,23.54,4.57,1,1,1,2.13,17.98,18.29,28.35,3.05,6.10,3.05,478.55,TARP,DOE-2,157.01,24.15,18.58,5.57,10,2,0,Yes
 Zone Information, FLOOR 2 WORK HALL,0.0,44.50,16.46,3.05,23.32,17.37,4.57,1,1,1,2.13,44.50,16.46,18.29,3.05,6.10,3.05,236.16,TARP,DOE-2,77.48,5.57,5.57,0.00,6,0,0,Yes
 Zone Information, FLOOR 2 WORK TOILET,0.0,0.00,26.21,3.05,1.37,25.30,4.57,1,1,1,0.00,2.74,24.38,26.21,3.05,6.10,3.05,15.29,TARP,DOE-2,5.02,5.57,5.57,0.00,7,0,0,Yes
 Zone Information, FLOOR 2 X-RAY,0.0,39.01,16.46,3.05,31.39,13.72,4.57,1,1,1,23.77,39.01,10.97,16.46,3.05,6.10,3.05,254.85,TARP,DOE-2,83.61,0.00,0.00,0.00,6,0,0,Yes
 Zone Information, FLOOR 3 DRESSING ROOM,0.0,39.01,10.97,6.10,37.95,11.89,7.62,1,1,1,36.88,39.01,10.97,12.80,6.10,9.14,3.05,11.89,TARP,DOE-2,3.90,0.00,0.00,0.00,6,0,0,Yes
 Zone Information, FLOOR 3 ELEVATOR HALL,0.0,5.79,28.35,6.10,3.83,23.43,7.62,1,1,1,2.13,5.79,18.29,28.35,6.10,9.14,3.05,104.77,TARP,DOE-2,34.37,3.72,3.72,0.00,9,0,0,Yes
 Zone Information, FLOOR 3 HUMID,0.0,35.05,16.46,6.10,35.97,13.72,7.62,1,1,1,35.05,36.88,10.97,16.46,6.10,9.14,3.05,30.58,TARP,DOE-2,10.03,0.00,0.00,0.00,6,0,0,Yes
 Zone Information, FLOOR 3 JANITOR,0.0,0.00,28.35,6.10,1.37,27.28,7.62,1,1,1,0.00,2.74,26.21,28.35,6.10,9.14,3.05,17.84,TARP,DOE-2,5.85,14.86,14.86,0.00,6,0,0,Yes
 Zone Information, FLOOR 3 LOCKER,0.0,37.49,20.42,6.10,35.66,21.95,7.62,1,1,1,33.83,37.49,20.42,23.47,6.10,9.14,3.05,33.98,TARP,DOE-2,11.15,0.00,0.00,0.00,6,0,0,Yes
 Zone Information, FLOOR 3 LOUNGE,0.0,37.49,28.35,6.10,41.00,23.32,7.62,1,1,1,37.49,44.50,18.29,28.35,6.10,9.14,3.05,214.92,TARP,DOE-2,70.51,21.37,15.79,5.57,7,2,0,Yes
 Zone Information, FLOOR 3 LOUNGE TOILET,0.0,33.83,23.47,6.10,35.66,25.91,7.62,1,1,1,33.83,37.49,23.47,28.35,6.10,9.14,3.05,54.37,TARP,DOE-2,17.84,11.15,6.97,4.18,6,1,0,Yes
 Zone Information, FLOOR 3 MECHANICAL,0.0,50.60,18.59,6.10,48.46,22.40,7.62,1,1,1,46.33,50.60,18.59,26.21,6.10,9.14,3.05,99.11,TARP,DOE-2,32.52,23.23,17.28,5.95,6,2,0,Yes
 Zone Information, FLOOR 3 MECHANICAL HALL,0.0,46.33,3.66,6.10,45.42,18.59,7.62,1,1,1,44.50,46.33,10.97,26.21,6.10,9.14,3.05,84.95,TARP,DOE-2,27.87,0.00,0.00,0.00,6,0,0,Yes
 Zone Information, FLOOR 3 OFFICE,0.0,33.83,28.35,6.10,19.81,23.32,7.62,1,1,1,5.79,33.83,18.29,28.35,6.10,9.14,3.05,859.70,TARP,DOE-2,282.05,68.75,49.24,19.51,7,7,0,Yes
 Zone Information, FLOOR 3 OFFICE HALL,0.0,2.13,16.46,6.10,23.32,17.37,7.62,1,1,1,2.13,44.50,16.46,18.29,6.10,9.14,3.05,236.16,TARP,DOE-2,77.48,5.57,5.57,0.00,6,0,0,Yes
 Zone Information, FLOOR 3 OFFICE TOILET,0.0,0.00,24.38,6.10,1.37,25.30,7.62,1,1,1,0.00,2.74,24.38,26.21,6.10,9.14,3.05,15.29,TARP,DOE-2,5.02,5.57,5.57,0.00,7,0,0,Yes
 Zone Information, FLOOR 3 PHYSICAL THERAPY 1,0.0,50.60,0.00,6.10,40.69,3.05,7.62,1,1,1,30.78,50.60,0.00,6.10,6.10,9.14,3.05,368.12,TARP,DOE-2,120.77,78.97,49.98,28.99,6,6,0,Yes
 Zone Information, FLOOR 3 PHYSICAL THERAPY 2,0.0,35.05,10.97,6.10,40.69,8.53,7.62,1,1,1,35.05,46.33,6.10,10.97,6.10,9.14,3.05,167.64,TARP,DOE-2,55.00,0.00,0.00,0.00,6,0,0,Yes
 Zone Information, FLOOR 3 PHYSICAL THERAPY TOILET,0.0,39.01,10.97,6.10,37.95,14.63,7.62,1,1,1,36.88,39.01,12.80,16.46,6.10,9.14,3.05,23.79,TARP,DOE-2,7.80,0.00,0.00,0.00,6,0,0,Yes
 Zone Information, FLOOR 3 STORAGE 1,0.0,39.01,10.97,6.10,41.76,11.89,7.62,1,1,1,39.01,44.50,10.97,12.80,6.10,9.14,3.05,30.58,TARP,DOE-2,10.03,0.00,0.00,0.00,6,0,0,Yes
 Zone Information, FLOOR 3 STORAGE 2,0.0,37.49,18.29,6.10,35.66,19.35,7.62,1,1,1,33.83,37.49,18.29,20.42,6.10,9.14,3.05,23.79,TARP,DOE-2,7.80,0.00,0.00,0.00,6,0,0,Yes
 Zone Information, FLOOR 3 TREATMENT,0.0,30.78,0.00,6.10,32.92,11.28,7.62,1,1,1,30.78,35.05,6.10,16.46,6.10,9.14,3.05,134.79,TARP,DOE-2,44.22,0.00,0.00,0.00,7,0,0,Yes
 Zone Information, FLOOR 3 UNDEVELOPED 1,0.0,17.98,0.00,6.10,24.38,8.23,7.62,1,1,1,17.98,30.78,0.00,16.46,6.10,9.14,3.05,642.23,TARP,DOE-2,210.70,66.89,41.25,25.64,7,6,0,Yes
 Zone Information, FLOOR 3 UNDEVELOPED 2,0.0,2.13,11.58,6.10,9.28,12.63,7.62,1,1,1,2.13,17.98,9.14,16.46,6.10,9.14,3.05,326.21,TARP,DOE-2,107.02,52.03,38.65,13.38,8,3,0,Yes
 Zone Information, FLOOR 3 UTILITY,0.0,39.01,16.46,6.10,41.76,14.63,7.62,1,1,1,39.01,44.50,12.80,16.46,6.10,9.14,3.05,61.16,TARP,DOE-2,20.07,0.00,0.00,0.00,6,0,0,Yes
 Zone Information, FLOOR 3 WORK,0.0,50.60,18.59,6.10,48.46,12.34,7.62,1,1,1,46.33,50.60,6.10,18.59,6.10,9.14,3.05,162.54,TARP,DOE-2,53.33,38.09,29.17,8.92,6,4,0,Yes
 Zone Information, NE STAIR,0.0,51.82,26.21,0.00,48.16,27.28,4.57,1,1,1,44.50,51.82,26.21,28.35,0.00,9.14,9.14,142.72,TARP,DOE-2,15.61,97.55,82.55,12.02,13,4,0,Yes
 Zone Information, NW ELEVATOR,0.0,0.00,24.38,0.00,1.07,21.34,4.57,1,1,1,0.00,2.13,18.29,24.38,0.00,9.14,9.14,118.93,TARP,DOE-2,13.01,75.25,75.25,0.00,10,0,0,Yes
 Zone Information, NW STAIR,0.0,12.80,28.35,0.00,7.62,29.57,4.57,1,1,1,3.96,11.28,28.35,30.78,0.00,9.14,9.14,163.11,TARP,DOE-2,17.84,111.48,97.36,11.15,10,3,0,Yes
 Zone Information, SW STAIR,0.0,0.91,11.58,0.00,3.96,10.36,4.57,1,1,1,2.13,5.79,9.14,11.58,0.00,9.14,9.14,81.55,TARP,DOE-2,8.92,55.74,54.63,1.11,10,1,0,Yes
! <Zone Internal Gains Nominal>,Zone Name, Floor Area {m2},# Occupants,Area per Occupant {m2/person},Occupant per Area {person/m2},Interior Lighting {W/m2},Electric Load {W/m2},Gas Load {W/m2},Other Load {W/m2},Hot Water Eq {W/m2},Steam Equipment {W/m2},Sum Loads per Area {W/m2},Outdoor Controlled Baseboard Heat
 Zone Internal Gains Nominal, FLOOR 1 ANESTHESIA,10.03,0.0,N/A,0.000,32.290,21.530,0.000,0.000,0.000,0.000,53.820,No
 Zone Internal Gains Nominal, FLOOR 1 BIO HAZ,5.20,0.0,N/A,0.000,9.690,1.080,0.000,0.000,0.000,0.000,10.770,No
 Zone Internal Gains Nominal, FLOOR 1 CAFE,39.02,39.0,1.000,1.000,9.690,10.760,0.000,0.000,0.000,0.000,20.450,No
 Zone Internal Gains Nominal, FLOOR 1 CLEAN,11.71,2.3,5.000,0.200,12.920,21.530,0.000,0.000,0.000,0.000,34.450,No
 Zone Internal Gains Nominal, FLOOR 1 CLEAN WORK,15.33,3.1,5.000,0.200,12.920,21.530,0.000,0.000,0.000,0.000,34.450,No
 Zone Internal Gains Nominal, FLOOR 1 DICTATION,11.71,0.6,20.000,5.000E-002,11.840,11.840,0.000,0.000,0.000,0.000,23.680,No
 Zone Internal Gains Nominal, FLOOR 1 DRESSING ROOM,4.18,0.2,20.000,5.000E-002,11.840,11.840,0.000,0.000,0.000,0.000,23.680,No
 Zone Internal Gains Nominal, FLOOR 1 ELECTRICAL ROOM,9.10,0.0,N/A,0.000,9.690,53.820,0.000,0.000,0.000,0.000,63.510,No
 Zone Internal Gains Nominal, FLOOR 1 ELEVATOR PUMP ROOM,8.45,0.0,N/A,0.000,9.690,5697.165,0.000,0.000,0.000,0.000,5706.855,No
 Zone Internal Gains Nominal, FLOOR 1 HUMID,5.02,0.3,20.000,5.000E-002,11.840,11.840,0.000,0.000,0.000,0.000,23.680,No
 Zone Internal Gains Nominal, FLOOR 1 IT HALL,13.01,0.0,N/A,0.000,10.760,4.310,0.000,0.000,0.000,0.000,15.070,No
 Zone Internal Gains Nominal, FLOOR 1 IT ROOM,10.41,0.5,20.000,5.000E-002,11.840,11.840,0.000,0.000,0.000,0.000,23.680,No
 Zone Internal Gains Nominal, FLOOR 1 LOBBY,57.79,17.4,3.330,0.300,13.990,11.840,0.000,0.000,0.000,0.000,25.830,No
 Zone Internal Gains Nominal, FLOOR 1 LOBBY HALL,22.30,0.0,N/A,0.000,10.760,4.310,0.000,0.000,0.000,0.000,15.070,No
 Zone Internal Gains Nominal, FLOOR 1 LOBBY TOILET,5.02,0.0,N/A,0.000,9.690,7.442,0.000,0.000,0.000,0.000,17.132,No
 Zone Internal Gains Nominal, FLOOR 1 LOCKER ROOM,61.32,9.2,6.670,0.150,8.610,32.290,0.000,0.000,0.000,0.000,40.900,No
 Zone Internal Gains Nominal, FLOOR 1 LOCKER ROOM HALL,46.08,0.0,N/A,0.000,10.760,4.310,0.000,0.000,0.000,0.000,15.070,No
 Zone Internal Gains Nominal, FLOOR 1 LOUNGE,33.45,5.0,6.670,0.150,8.610,32.290,0.000,0.000,0.000,0.000,40.900,No
 Zone Internal Gains Nominal, FLOOR 1 MRI CONTROL ROOM,15.61,3.1,5.000,0.200,4.310,11.840,0.000,0.000,0.000,0.000,16.150,No
 Zone Internal Gains Nominal, FLOOR 1 MRI HALL,13.66,0.0,N/A,0.000,10.760,4.310,0.000,0.000,0.000,0.000,15.070,No
 Zone Internal Gains Nominal, FLOOR 1 MRI ROOM,40.88,8.2,5.000,0.200,4.310,573.562,0.000,0.000,0.000,0.000,577.872,No
 Zone Internal Gains Nominal, FLOOR 1 MRI TOILET,5.02,0.0,N/A,0.000,9.690,7.442,0.000,0.000,0.000,0.000,17.132,No
 Zone Internal Gains Nominal, FLOOR 1 MED GAS,5.20,0.0,N/A,0.000,9.690,1.080,0.000,0.000,0.000,0.000,10.770,No
 Zone Internal Gains Nominal, FLOOR 1 NOURISHMENT,16.91,3.4,5.000,0.200,10.760,21.530,0.000,0.000,0.000,0.000,32.290,No
 Zone Internal Gains Nominal, FLOOR 1 NURSE HALL,46.08,0.0,N/A,0.000,10.760,4.310,0.000,0.000,0.000,0.000,15.070,No
 Zone Internal Gains Nominal, FLOOR 1 NURSE JANITOR,5.02,0.0,N/A,0.000,9.690,0.000,0.000,0.000,0.000,0.000,9.690,No
 Zone Internal Gains Nominal, FLOOR 1 NURSE STATION,24.25,4.8,5.000,0.200,10.760,21.530,0.000,0.000,0.000,0.000,32.290,No
 Zone Internal Gains Nominal, FLOOR 1 NURSE TOILET,5.02,0.0,N/A,0.000,9.690,7.442,0.000,0.000,0.000,0.000,17.132,No
 Zone Internal Gains Nominal, FLOOR 1 OFFICE,44.87,2.2,20.000,5.000E-002,11.840,11.840,0.000,0.000,0.000,0.000,23.680,No
 Zone Internal Gains Nominal, FLOOR 1 OPERATING ROOM 1,42.74,8.5,5.000,0.200,23.680,43.060,75.300,0.000,0.000,0.000,142.040,No
 Zone Internal Gains Nominal, FLOOR 1 OPERATING ROOM 2,44.59,8.9,5.000,0.200,23.680,43.060,75.300,0.000,0.000,0.000,142.040,No
 Zone Internal Gains Nominal, FLOOR 1 OPERATING ROOM 3,44.22,8.8,5.000,0.200,23.680,43.060,75.300,0.000,0.000,0.000,142.040,No
 Zone Internal Gains Nominal, FLOOR 1 PACU,10.03,2.0,5.000,0.200,8.610,32.290,0.000,0.000,0.000,0.000,40.900,No
 Zone Internal Gains Nominal, FLOOR 1 PRE-OP HALL,49.05,0.0,N/A,0.000,10.760,4.310,0.000,0.000,0.000,0.000,15.070,No
 Zone Internal Gains Nominal, FLOOR 1 PRE-OP ROOM 1,17.56,1.8,10.000,0.100,7.530,21.530,0.000,0.000,0.000,0.000,29.060,No
 Zone Internal Gains Nominal, FLOOR 1 PRE-OP ROOM 2,31.40,3.1,10.000,0.100,7.530,21.530,0.000,0.000,0.000,0.000,29.060,No
 Zone Internal Gains Nominal, FLOOR 1 PRE-OP TOILET,5.02,0.0,N/A,0.000,9.690,7.442,0.000,0.000,0.000,0.000,17.132,No
 Zone Internal Gains Nominal, FLOOR 1 PROCEDURE ROOM,26.48,5.3,5.000,0.200,23.680,32.290,0.000,0.000,0.000,0.000,55.970,No
 Zone Internal Gains Nominal, FLOOR 1 RECEPTION,47.29,14.2,3.330,0.300,13.990,11.840,0.000,0.000,0.000,0.000,25.830,No
 Zone Internal Gains Nominal, FLOOR 1 RECEPTION HALL,11.89,0.0,N/A,0.000,10.760,4.310,0.000,0.000,0.000,0.000,15.070,No
 Zone Internal Gains Nominal, FLOOR 1 RECOVERY ROOM,50.17,10.0,5.000,0.200,8.610,32.290,0.000,0.000,0.000,0.000,40.900,No
 Zone Internal Gains Nominal, FLOOR 1 SCHEDULING,11.06,0.6,20.000,5.000E-002,11.840,11.840,0.000,0.000,0.000,0.000,23.680,No
 Zone Internal Gains Nominal, FLOOR 1 SCRUB,7.80,0.0,N/A,0.000,10.760,4.310,0.000,0.000,0.000,0.000,15.070,No
 Zone Internal Gains Nominal, FLOOR 1 SOIL,11.71,2.3,5.000,0.200,12.920,21.530,0.000,0.000,0.000,0.000,34.450,No
 Zone Internal Gains Nominal, FLOOR 1 SOIL HOLD,5.20,1.0,5.000,0.200,12.920,21.530,0.000,0.000,0.000,0.000,34.450,No
 Zone Internal Gains Nominal, FLOOR 1 SOIL WORK,16.72,3.3,5.000,0.200,12.920,21.530,0.000,0.000,0.000,0.000,34.450,No
 Zone Internal Gains Nominal, FLOOR 1 STEP DOWN,27.87,5.6,5.000,0.200,8.610,32.290,0.000,0.000,0.000,0.000,40.900,No
 Zone Internal Gains Nominal, FLOOR 1 STERILE HALL,57.23,0.0,N/A,0.000,10.760,4.310,0.000,0.000,0.000,0.000,15.070,No
 Zone Internal Gains Nominal, FLOOR 1 STERILE STORAGE,36.79,0.0,N/A,0.000,9.690,1.080,0.000,0.000,0.000,0.000,10.770,No
 Zone Internal Gains Nominal, FLOOR 1 STORAGE,85.47,0.0,N/A,0.000,9.690,0.000,0.000,0.000,0.000,0.000,9.690,No
 Zone Internal Gains Nominal, FLOOR 1 SUB-STERILE,18.21,0.0,N/A,0.000,10.760,4.310,0.000,0.000,0.000,0.000,15.070,No
 Zone Internal Gains Nominal, FLOOR 1 UTILITY HALL,23.78,0.0,N/A,0.000,10.760,4.310,0.000,0.000,0.000,0.000,15.070,No
 Zone Internal Gains Nominal, FLOOR 1 UTILITY JANITOR,3.90,0.0,N/A,0.000,9.690,0.000,0.000,0.000,0.000,0.000,9.690,No
 Zone Internal Gains Nominal, FLOOR 1 UTILITY ROOM,33.45,0.0,N/A,0.000,9.690,1.080,0.000,0.000,0.000,0.000,10.770,No
 Zone Internal Gains Nominal, FLOOR 1 VESTIBULE,6.69,0.0,N/A,0.000,10.760,4.310,0.000,0.000,0.000,0.000,15.070,No
 Zone Internal Gains Nominal, FLOOR 2 CONFERENCE,31.22,15.6,2.000,0.500,13.990,10.760,0.000,0.000,0.000,0.000,24.750,No
 Zone Internal Gains Nominal, FLOOR 2 CONFERENCE TOILET,5.95,0.0,N/A,0.000,9.690,7.441,0.000,0.000,0.000,0.000,17.131,No
 Zone Internal Gains Nominal, FLOOR 2 DICTATION,6.50,0.3,20.000,5.000E-002,11.840,11.840,0.000,0.000,0.000,0.000,23.680,No
 Zone Internal Gains Nominal, FLOOR 2 EXAM 1,33.45,6.7,5.000,0.200,16.150,11.840,0.000,0.000,0.000,0.000,27.990,No
 Zone Internal Gains Nominal, FLOOR 2 EXAM 2,50.17,10.0,5.000,0.200,16.150,11.840,0.000,0.000,0.000,0.000,27.990,No
 Zone Internal Gains Nominal, FLOOR 2 EXAM 3,66.89,13.4,5.000,0.200,16.150,11.840,0.000,0.000,0.000,0.000,27.990,No
 Zone Internal Gains Nominal, FLOOR 2 EXAM 4,7.80,1.6,5.000,0.200,16.150,11.840,0.000,0.000,0.000,0.000,27.990,No
 Zone Internal Gains Nominal, FLOOR 2 EXAM 5,32.52,6.5,5.000,0.200,16.150,11.840,0.000,0.000,0.000,0.000,27.990,No
 Zone Internal Gains Nominal, FLOOR 2 EXAM 6,20.90,4.2,5.000,0.200,16.150,11.840,0.000,0.000,0.000,0.000,27.990,No
 Zone Internal Gains Nominal, FLOOR 2 EXAM 7,73.58,14.7,5.000,0.200,16.150,11.840,0.000,0.000,0.000,0.000,27.990,No
 Zone Internal Gains Nominal, FLOOR 2 EXAM 8,25.08,5.0,5.000,0.200,16.150,11.840,0.000,0.000,0.000,0.000,27.990,No
 Zone Internal Gains Nominal, FLOOR 2 EXAM 9,36.79,7.4,5.000,0.200,16.150,11.840,0.000,0.000,0.000,0.000,27.990,No
 Zone Internal Gains Nominal, FLOOR 2 EXAM HALL 1,16.72,0.0,N/A,0.000,10.760,4.310,0.000,0.000,0.000,0.000,15.070,No
 Zone Internal Gains Nominal, FLOOR 2 EXAM HALL 2,16.72,0.0,N/A,0.000,10.760,4.310,0.000,0.000,0.000,0.000,15.070,No
 Zone Internal Gains Nominal, FLOOR 2 EXAM HALL 3,16.72,0.0,N/A,0.000,10.760,4.310,0.000,0.000,0.000,0.000,15.070,No
 Zone Internal Gains Nominal, FLOOR 2 EXAM HALL 4,18.39,0.0,N/A,0.000,10.760,4.310,0.000,0.000,0.000,0.000,15.070,No
 Zone Internal Gains Nominal, FLOOR 2 EXAM HALL 5,18.39,0.0,N/A,0.000,10.760,4.310,0.000,0.000,0.000,0.000,15.070,No
 Zone Internal Gains Nominal, FLOOR 2 EXAM HALL 6,18.39,0.0,N/A,0.000,10.760,4.310,0.000,0.000,0.000,0.000,15.070,No
 Zone Internal Gains Nominal, FLOOR 2 JANITOR,5.85,0.0,N/A,0.000,9.690,0.000,0.000,0.000,0.000,0.000,9.690,No
 Zone Internal Gains Nominal, FLOOR 2 LOUNGE,7.43,1.1,6.670,0.150,8.610,32.290,0.000,0.000,0.000,0.000,40.900,No
 Zone Internal Gains Nominal, FLOOR 2 NURSE STATION 1,13.94,2.8,5.000,0.200,10.760,21.530,0.000,0.000,0.000,0.000,32.290,No
 Zone Internal Gains Nominal, FLOOR 2 NURSE STATION 2,16.72,3.3,5.000,0.200,10.760,21.530,0.000,0.000,0.000,0.000,32.290,No
 Zone Internal Gains Nominal, FLOOR 2 OFFICE,52.03,2.6,20.000,5.000E-002,11.840,11.840,0.000,0.000,0.000,0.000,23.680,No
 Zone Internal Gains Nominal, FLOOR 2 OFFICE HALL,41.25,0.0,N/A,0.000,10.760,4.310,0.000,0.000,0.000,0.000,15.070,No
 Zone Internal Gains Nominal, FLOOR 2 RECEPTION,91.42,27.5,3.330,0.300,13.990,11.840,0.000,0.000,0.000,0.000,25.830,No
 Zone Internal Gains Nominal, FLOOR 2 RECEPTION HALL,52.40,0.0,N/A,0.000,10.760,4.310,0.000,0.000,0.000,0.000,15.070,No
 Zone Internal Gains Nominal, FLOOR 2 RECEPTION TOILET,11.71,0.0,N/A,0.000,9.690,7.441,0.000,0.000,0.000,0.000,17.131,No
 Zone Internal Gains Nominal, FLOOR 2 SCHEDULING 1,30.10,1.5,20.000,5.000E-002,11.840,11.840,0.000,0.000,0.000,0.000,23.680,No
 Zone Internal Gains Nominal, FLOOR 2 SCHEDULING 2,31.77,1.6,20.000,5.000E-002,11.840,11.840,0.000,0.000,0.000,0.000,23.680,No
 Zone Internal Gains Nominal, FLOOR 2 STORAGE 1,5.20,0.0,N/A,0.000,9.690,0.000,0.000,0.000,0.000,0.000,9.690,No
 Zone Internal Gains Nominal, FLOOR 2 STORAGE 2,11.15,0.0,N/A,0.000,9.690,0.000,0.000,0.000,0.000,0.000,9.690,No
 Zone Internal Gains Nominal, FLOOR 2 STORAGE 3,13.38,0.0,N/A,0.000,9.690,0.000,0.000,0.000,0.000,0.000,9.690,No
 Zone Internal Gains Nominal, FLOOR 2 UTILITY,11.71,0.0,N/A,0.000,9.690,1.080,0.000,0.000,0.000,0.000,10.770,No
 Zone Internal Gains Nominal, FLOOR 2 WORK,157.01,7.9,20.000,5.000E-002,11.840,11.840,0.000,0.000,0.000,0.000,23.680,No
 Zone Internal Gains Nominal, FLOOR 2 WORK HALL,77.48,0.0,N/A,0.000,10.760,4.310,0.000,0.000,0.000,0.000,15.070,No
 Zone Internal Gains Nominal, FLOOR 2 WORK TOILET,5.02,0.0,N/A,0.000,9.690,7.442,0.000,0.000,0.000,0.000,17.132,No
 Zone Internal Gains Nominal, FLOOR 2 X-RAY,83.61,16.7,5.000,0.200,4.310,14.021,0.000,0.000,0.000,0.000,18.331,No
 Zone Internal Gains Nominal, FLOOR 3 DRESSING ROOM,3.90,0.2,20.000,5.000E-002,11.840,11.840,0.000,0.000,0.000,0.000,23.680,No
 Zone Internal Gains Nominal, FLOOR 3 ELEVATOR HALL,34.37,0.0,N/A,0.000,10.760,4.310,0.000,0.000,0.000,0.000,15.070,No
 Zone Internal Gains Nominal, FLOOR 3 HUMID,10.03,0.5,20.000,5.000E-002,11.840,11.840,0.000,0.000,0.000,0.000,23.680,No
 Zone Internal Gains Nominal, FLOOR 3 JANITOR,5.85,0.0,N/A,0.000,9.690,0.000,0.000,0.000,0.000,0.000,9.690,No
 Zone Internal Gains Nominal, FLOOR 3 LOCKER,11.15,1.7,6.670,0.150,8.610,32.290,0.000,0.000,0.000,0.000,40.900,No
 Zone Internal Gains Nominal, FLOOR 3 LOUNGE,70.51,10.6,6.670,0.150,8.610,32.290,0.000,0.000,0.000,0.000,40.900,No
 Zone Internal Gains Nominal, FLOOR 3 LOUNGE TOILET,17.84,0.0,N/A,0.000,9.690,7.441,0.000,0.000,0.000,0.000,17.131,No
 Zone Internal Gains Nominal, FLOOR 3 MECHANICAL,32.52,0.0,N/A,0.000,9.690,53.820,0.000,0.000,0.000,0.000,63.510,No
 Zone Internal Gains Nominal, FLOOR 3 MECHANICAL HALL,27.87,0.0,N/A,0.000,10.760,4.310,0.000,0.000,0.000,0.000,15.070,No
 Zone Internal Gains Nominal, FLOOR 3 OFFICE,282.05,14.1,20.000,5.000E-002,11.840,11.840,0.000,0.000,0.000,0.000,23.680,No
 Zone Internal Gains Nominal, FLOOR 3 OFFICE HALL,77.48,0.0,N/A,0.000,10.760,4.310,0.000,0.000,0.000,0.000,15.070,No
 Zone Internal Gains Nominal, FLOOR 3 OFFICE TOILET,5.02,0.0,N/A,0.000,9.690,7.442,0.000,0.000,0.000,0.000,17.132,No
 Zone Internal Gains Nominal, FLOOR 3 PHYSICAL THERAPY 1,120.77,24.2,5.000,0.200,9.690,16.150,0.000,0.000,0.000,0.000,25.840,No
 Zone Internal Gains Nominal, FLOOR 3 PHYSICAL THERAPY 2,55.00,11.0,5.000,0.200,9.690,16.150,0.000,0.000,0.000,0.000,25.840,No
 Zone Internal Gains Nominal, FLOOR 3 PHYSICAL THERAPY TOILET,7.80,0.0,N/A,0.000,9.690,7.441,0.000,0.000,0.000,0.000,17.131,No
 Zone Internal Gains Nominal, FLOOR 3 STORAGE 1,10.03,0.0,N/A,0.000,9.690,0.000,0.000,0.000,0.000,0.000,9.690,No
 Zone Internal Gains Nominal, FLOOR 3 STORAGE 2,7.80,0.0,N/A,0.000,9.690,0.000,0.000,0.000,0.000,0.000,9.690,No
 Zone Internal Gains Nominal, FLOOR 3 TREATMENT,44.22,8.8,5.000,0.200,16.150,11.840,0.000,0.000,0.000,0.000,27.990,No
 Zone Internal Gains Nominal, FLOOR 3 UNDEVELOPED 1,210.70,0.0,N/A,0.000,0.000,0.000,0.000,0.000,0.000,0.000,0.000,No
 Zone Internal Gains Nominal, FLOOR 3 UNDEVELOPED 2,107.02,0.0,N/A,0.000,0.000,0.000,0.000,0.000,0.000,0.000,0.000,No
 Zone Internal Gains Nominal, FLOOR 3 UTILITY,20.07,0.0,N/A,0.000,9.690,1.080,0.000,0.000,0.000,0.000,10.770,No
 Zone Internal Gains Nominal, FLOOR 3 WORK,53.33,2.7,20.000,5.000E-002,11.840,11.840,0.000,0.000,0.000,0.000,23.680,No
 Zone Internal Gains Nominal, NE STAIR,15.61,0.0,N/A,0.000,10.760,0.000,0.000,0.000,0.000,0.000,10.760,No
 Zone Internal Gains Nominal, NW ELEVATOR,13.01,0.0,N/A,0.000,10.760,0.000,0.000,0.000,0.000,0.000,10.760,No
 Zone Internal Gains Nominal, NW STAIR,17.84,0.0,N/A,0.000,10.760,0.000,0.000,0.000,0.000,0.000,10.760,No
 Zone Internal Gains Nominal, SW STAIR,8.92,0.0,N/A,0.000,10.760,0.000,0.000,0.000,0.000,0.000,10.760,No
! <People Internal Gains Nominal>,Name,Schedule Name,Zone Name,Zone Floor Area {m2},# Zone Occupants,Number of People {},People/Floor Area {person/m2},Floor Area per person {m2/person},Fraction Radiant,Fraction Convected,Sensible Fraction Calculation,Activity level,ASHRAE 55 Warnings,Carbon Dioxide Generation Rate,Nominal Minimum Number of People,Nominal Maximum Number of People,MRT Calculation Type,Work Efficiency, Clothing Insulation Calculation Method,Clothing Insulation Calculation Method Schedule,Clothing,Air Velocity,Fanger Calculation,Pierce Calculation,KSU Calculation
 People Internal Gains Nominal, FLOOR 1 CAFE PEOPLE,BLDG_OCC_SCH,FLOOR 1 CAFE,39.02,39.0,39.0,1.000,1.000,0.300,0.700,AutoCalculate,ACTIVITY_SCH,No,3.8200E-008,0,35,Zone Averaged,WORK_EFF_SCH,Clothing Insulation Schedule,N/A,CLOTHING_SCH,AIR_VELO_SCH,Yes,No,No
 People Internal Gains Nominal, FLOOR 1 CLEAN PEOPLE,BLDG_OCC_SCH,FLOOR 1 CLEAN,11.71,2.3,2.3,0.200,5.000,0.300,0.700,AutoCalculate,ACTIVITY_SCH,No,3.8200E-008,0,2,Zone Averaged,WORK_EFF_SCH,Clothing Insulation Schedule,N/A,CLOTHING_SCH,AIR_VELO_SCH,Yes,No,No
 People Internal Gains Nominal, FLOOR 1 CLEAN WORK PEOPLE,BLDG_OCC_SCH,FLOOR 1 CLEAN WORK,15.33,3.1,3.1,0.200,5.000,0.300,0.700,AutoCalculate,ACTIVITY_SCH,No,3.8200E-008,0,3,Zone Averaged,WORK_EFF_SCH,Clothing Insulation Schedule,N/A,CLOTHING_SCH,AIR_VELO_SCH,Yes,No,No
 People Internal Gains Nominal, FLOOR 1 DICTATION PEOPLE,BLDG_OCC_SCH,FLOOR 1 DICTATION,11.71,0.6,0.6,5.000E-002,20.000,0.300,0.700,AutoCalculate,ACTIVITY_SCH,No,3.8200E-008,0,1,Zone Averaged,WORK_EFF_SCH,Clothing Insulation Schedule,N/A,CLOTHING_SCH,AIR_VELO_SCH,Yes,No,No
 People Internal Gains Nominal, FLOOR 1 DRESSING ROOM PEOPLE,BLDG_OCC_SCH,FLOOR 1 DRESSING ROOM,4.18,0.2,0.2,5.000E-002,20.000,0.300,0.700,AutoCalculate,ACTIVITY_SCH,No,3.8200E-008,0,0,Zone Averaged,WORK_EFF_SCH,Clothing Insulation Schedule,N/A,CLOTHING_SCH,AIR_VELO_SCH,Yes,No,No
 People Internal Gains Nominal, FLOOR 1 HUMID PEOPLE,BLDG_OCC_SCH,FLOOR 1 HUMID,5.02,0.3,0.3,5.000E-002,20.000,0.300,0.700,AutoCalculate,ACTIVITY_SCH,No,3.8200E-008,0,0,Zone Averaged,WORK_EFF_SCH,Clothing Insulation Schedule,N/A,CLOTHING_SCH,AIR_VELO_SCH,Yes,No,No
 People Internal Gains Nominal, FLOOR 1 IT ROOM PEOPLE,BLDG_OCC_SCH,FLOOR 1 IT ROOM,10.41,0.5,0.5,5.000E-002,20.000,0.300,0.700,AutoCalculate,ACTIVITY_SCH,No,3.8200E-008,0,0,Zone Averaged,WORK_EFF_SCH,Clothing Insulation Schedule,N/A,CLOTHING_SCH,AIR_VELO_SCH,Yes,No,No
 People Internal Gains Nominal, FLOOR 1 LOBBY PEOPLE,BLDG_OCC_SCH,FLOOR 1 LOBBY,57.79,17.4,17.4,0.300,3.330,0.300,0.700,AutoCalculate,ACTIVITY_SCH,No,3.8200E-008,0,16,Zone Averaged,WORK_EFF_SCH,Clothing Insulation Schedule,N/A,CLOTHING_SCH,AIR_VELO_SCH,Yes,No,No
 People Internal Gains Nominal, FLOOR 1 LOCKER ROOM PEOPLE,BLDG_OCC_SCH,FLOOR 1 LOCKER ROOM,61.32,9.2,9.2,0.150,6.670,0.300,0.700,AutoCalculate,ACTIVITY_SCH,No,3.8200E-008,0,8,Zone Averaged,WORK_EFF_SCH,Clothing Insulation Schedule,N/A,CLOTHING_SCH,AIR_VELO_SCH,Yes,No,No
 People Internal Gains Nominal, FLOOR 1 LOUNGE PEOPLE,BLDG_OCC_SCH,FLOOR 1 LOUNGE,33.45,5.0,5.0,0.150,6.670,0.300,0.700,AutoCalculate,ACTIVITY_SCH,No,3.8200E-008,0,5,Zone Averaged,WORK_EFF_SCH,Clothing Insulation Schedule,N/A,CLOTHING_SCH,AIR_VELO_SCH,Yes,No,No
 People Internal Gains Nominal, FLOOR 1 MRI CONTROL ROOM PEOPLE,BLDG_OCC_SCH,FLOOR 1 MRI CONTROL ROOM,15.61,3.1,3.1,0.200,5.000,0.300,0.700,AutoCalculate,ACTIVITY_SCH,No,3.8200E-008,0,3,Zone Averaged,WORK_EFF_SCH,Clothing Insulation Schedule,N/A,CLOTHING_SCH,AIR_VELO_SCH,Yes,No,No
 People Internal Gains Nominal, FLOOR 1 MRI ROOM PEOPLE,BLDG_OCC_SCH,FLOOR 1 MRI ROOM,40.88,8.2,8.2,0.200,5.000,0.300,0.700,AutoCalculate,ACTIVITY_SCH,No,3.8200E-008,0,7,Zone Averaged,WORK_EFF_SCH,Clothing Insulation Schedule,N/A,CLOTHING_SCH,AIR_VELO_SCH,Yes,No,No
 People Internal Gains Nominal, FLOOR 1 NOURISHMENT PEOPLE,BLDG_OCC_SCH,FLOOR 1 NOURISHMENT,16.91,3.4,3.4,0.200,5.000,0.300,0.700,AutoCalculate,ACTIVITY_SCH,No,3.8200E-008,0,3,Zone Averaged,WORK_EFF_SCH,Clothing Insulation Schedule,N/A,CLOTHING_SCH,AIR_VELO_SCH,Yes,No,No
 People Internal Gains Nominal, FLOOR 1 NURSE STATION PEOPLE,BLDG_OCC_SCH,FLOOR 1 NURSE STATION,24.25,4.8,4.8,0.200,5.000,0.300,0.700,AutoCalculate,ACTIVITY_SCH,No,3.8200E-008,0,4,Zone Averaged,WORK_EFF_SCH,Clothing Insulation Schedule,N/A,CLOTHING_SCH,AIR_VELO_SCH,Yes,No,No
 People Internal Gains Nominal, FLOOR 1 OFFICE PEOPLE,BLDG_OCC_SCH,FLOOR 1 OFFICE,44.87,2.2,2.2,5.000E-002,20.000,0.300,0.700,AutoCalculate,ACTIVITY_SCH,No,3.8200E-008,0,2,Zone Averaged,WORK_EFF_SCH,Clothing Insulation Schedule,N/A,CLOTHING_SCH,AIR_VELO_SCH,Yes,No,No
 People Internal Gains Nominal, FLOOR 1 OPERATING ROOM 1 PEOPLE,BLDG_OCC_SCH,FLOOR 1 OPERATING ROOM 1,42.74,8.5,8.5,0.200,5.000,0.300,0.700,AutoCalculate,ACTIVITY_SCH,No,3.8200E-008,0,8,Zone Averaged,WORK_EFF_SCH,Clothing Insulation Schedule,N/A,CLOTHING_SCH,AIR_VELO_SCH,Yes,No,No
 People Internal Gains Nominal, FLOOR 1 OPERATING ROOM 2 PEOPLE,BLDG_OCC_SCH,FLOOR 1 OPERATING ROOM 2,44.59,8.9,8.9,0.200,5.000,0.300,0.700,AutoCalculate,ACTIVITY_SCH,No,3.8200E-008,0,8,Zone Averaged,WORK_EFF_SCH,Clothing Insulation Schedule,N/A,CLOTHING_SCH,AIR_VELO_SCH,Yes,No,No
 People Internal Gains Nominal, FLOOR 1 OPERATING ROOM 3 PEOPLE,BLDG_OCC_SCH,FLOOR 1 OPERATING ROOM 3,44.22,8.8,8.8,0.200,5.000,0.300,0.700,AutoCalculate,ACTIVITY_SCH,No,3.8200E-008,0,8,Zone Averaged,WORK_EFF_SCH,Clothing Insulation Schedule,N/A,CLOTHING_SCH,AIR_VELO_SCH,Yes,No,No
 People Internal Gains Nominal, FLOOR 1 PACU PEOPLE,BLDG_OCC_SCH,FLOOR 1 PACU,10.03,2.0,2.0,0.200,5.000,0.300,0.700,AutoCalculate,ACTIVITY_SCH,No,3.8200E-008,0,2,Zone Averaged,WORK_EFF_SCH,Clothing Insulation Schedule,N/A,CLOTHING_SCH,AIR_VELO_SCH,Yes,No,No
 People Internal Gains Nominal, FLOOR 1 PRE-OP ROOM 1 PEOPLE,BLDG_OCC_SCH,FLOOR 1 PRE-OP ROOM 1,17.56,1.8,1.8,0.100,10.000,0.300,0.700,AutoCalculate,ACTIVITY_SCH,No,3.8200E-008,0,2,Zone Averaged,WORK_EFF_SCH,Clothing Insulation Schedule,N/A,CLOTHING_SCH,AIR_VELO_SCH,Yes,No,No
 People Internal Gains Nominal, FLOOR 1 PRE-OP ROOM 2 PEOPLE,BLDG_OCC_SCH,FLOOR 1 PRE-OP ROOM 2,31.40,3.1,3.1,0.100,10.000,0.300,0.700,AutoCalculate,ACTIVITY_SCH,No,3.8200E-008,0,3,Zone Averaged,WORK_EFF_SCH,Clothing Insulation Schedule,N/A,CLOTHING_SCH,AIR_VELO_SCH,Yes,No,No
 People Internal Gains Nominal, FLOOR 1 PROCEDURE ROOM PEOPLE,BLDG_OCC_SCH,FLOOR 1 PROCEDURE ROOM,26.48,5.3,5.3,0.200,5.000,0.300,0.700,AutoCalculate,ACTIVITY_SCH,No,3.8200E-008,0,5,Zone Averaged,WORK_EFF_SCH,Clothing Insulation Schedule,N/A,CLOTHING_SCH,AIR_VELO_SCH,Yes,No,No
 People Internal Gains Nominal, FLOOR 1 RECEPTION PEOPLE,BLDG_OCC_SCH,FLOOR 1 RECEPTION,47.29,14.2,14.2,0.300,3.330,0.300,0.700,AutoCalculate,ACTIVITY_SCH,No,3.8200E-008,0,13,Zone Averaged,WORK_EFF_SCH,Clothing Insulation Schedule,N/A,CLOTHING_SCH,AIR_VELO_SCH,Yes,No,No
 People Internal Gains Nominal, FLOOR 1 RECOVERY ROOM PEOPLE,BLDG_OCC_SCH,FLOOR 1 RECOVERY ROOM,50.17,10.0,10.0,0.200,5.000,0.300,0.700,AutoCalculate,ACTIVITY_SCH,No,3.8200E-008,0,9,Zone Averaged,WORK_EFF_SCH,Clothing Insulation Schedule,N/A,CLOTHING_SCH,AIR_VELO_SCH,Yes,No,No
 People Internal Gains Nominal, FLOOR 1 SCHEDULING PEOPLE,BLDG_OCC_SCH,FLOOR 1 SCHEDULING,11.06,0.6,0.6,5.000E-002,20.000,0.300,0.700,AutoCalculate,ACTIVITY_SCH,No,3.8200E-008,0,0,Zone Averaged,WORK_EFF_SCH,Clothing Insulation Schedule,N/A,CLOTHING_SCH,AIR_VELO_SCH,Yes,No,No
 People Internal Gains Nominal, FLOOR 1 SOIL HOLD PEOPLE,BLDG_OCC_SCH,FLOOR 1 SOIL HOLD,5.20,1.0,1.0,0.200,5.000,0.300,0.700,AutoCalculate,ACTIVITY_SCH,No,3.8200E-008,0,1,Zone Averaged,WORK_EFF_SCH,Clothing Insulation Schedule,N/A,CLOTHING_SCH,AIR_VELO_SCH,Yes,No,No
 People Internal Gains Nominal, FLOOR 1 SOIL PEOPLE,BLDG_OCC_SCH,FLOOR 1 SOIL,11.71,2.3,2.3,0.200,5.000,0.300,0.700,AutoCalculate,ACTIVITY_SCH,No,3.8200E-008,0,2,Zone Averaged,WORK_EFF_SCH,Clothing Insulation Schedule,N/A,CLOTHING_SCH,AIR_VELO_SCH,Yes,No,No
 People Internal Gains Nominal, FLOOR 1 SOIL WORK PEOPLE,BLDG_OCC_SCH,FLOOR 1 SOIL WORK,16.72,3.3,3.3,0.200,5.000,0.300,0.700,AutoCalculate,ACTIVITY_SCH,No,3.8200E-008,0,3,Zone Averaged,WORK_EFF_SCH,Clothing Insulation Schedule,N/A,CLOTHING_SCH,AIR_VELO_SCH,Yes,No,No
 People Internal Gains Nominal, FLOOR 1 STEP DOWN PEOPLE,BLDG_OCC_SCH,FLOOR 1 STEP DOWN,27.87,5.6,5.6,0.200,5.000,0.300,0.700,AutoCalculate,ACTIVITY_SCH,No,3.8200E-008,0,5,Zone Averaged,WORK_EFF_SCH,Clothing Insulation Schedule,N/A,CLOTHING_SCH,AIR_VELO_SCH,Yes,No,No
 People Internal Gains Nominal, FLOOR 2 CONFERENCE PEOPLE,BLDG_OCC_SCH,FLOOR 2 CONFERENCE,31.22,15.6,15.6,0.500,2.000,0.300,0.700,AutoCalculate,ACTIVITY_SCH,No,3.8200E-008,0,14,Zone Averaged,WORK_EFF_SCH,Clothing Insulation Schedule,N/A,CLOTHING_SCH,AIR_VELO_SCH,Yes,No,No
 People Internal Gains Nominal, FLOOR 2 DICTATION PEOPLE,BLDG_OCC_SCH,FLOOR 2 DICTATION,6.50,0.3,0.3,5.000E-002,20.000,0.300,0.700,AutoCalculate,ACTIVITY_SCH,No,3.8200E-008,0,0,Zone Averaged,WORK_EFF_SCH,Clothing Insulation Schedule,N/A,CLOTHING_SCH,AIR_VELO_SCH,Yes,No,No
 People Internal Gains Nominal, FLOOR 2 EXAM 1 PEOPLE,BLDG_OCC_SCH,FLOOR 2 EXAM 1,33.45,6.7,6.7,0.200,5.000,0.300,0.700,AutoCalculate,ACTIVITY_SCH,No,3.8200E-008,0,6,Zone Averaged,WORK_EFF_SCH,Clothing Insulation Schedule,N/A,CLOTHING_SCH,AIR_VELO_SCH,Yes,No,No
 People Internal Gains Nominal, FLOOR 2 EXAM 2 PEOPLE,BLDG_OCC_SCH,FLOOR 2 EXAM 2,50.17,10.0,10.0,0.200,5.000,0.300,0.700,AutoCalculate,ACTIVITY_SCH,No,3.8200E-008,0,9,Zone Averaged,WORK_EFF_SCH,Clothing Insulation Schedule,N/A,CLOTHING_SCH,AIR_VELO_SCH,Yes,No,No
 People Internal Gains Nominal, FLOOR 2 EXAM 3 PEOPLE,BLDG_OCC_SCH,FLOOR 2 EXAM 3,66.89,13.4,13.4,0.200,5.000,0.300,0.700,AutoCalculate,ACTIVITY_SCH,No,3.8200E-008,0,12,Zone Averaged,WORK_EFF_SCH,Clothing Insulation Schedule,N/A,CLOTHING_SCH,AIR_VELO_SCH,Yes,No,No
 People Internal Gains Nominal, FLOOR 2 EXAM 4 PEOPLE,BLDG_OCC_SCH,FLOOR 2 EXAM 4,7.80,1.6,1.6,0.200,5.000,0.300,0.700,AutoCalculate,ACTIVITY_SCH,No,3.8200E-008,0,1,Zone Averaged,WORK_EFF_SCH,Clothing Insulation Schedule,N/A,CLOTHING_SCH,AIR_VELO_SCH,Yes,No,No
 People Internal Gains Nominal, FLOOR 2 EXAM 5 PEOPLE,BLDG_OCC_SCH,FLOOR 2 EXAM 5,32.52,6.5,6.5,0.200,5.000,0.300,0.700,AutoCalculate,ACTIVITY_SCH,No,3.8200E-008,0,6,Zone Averaged,WORK_EFF_SCH,Clothing Insulation Schedule,N/A,CLOTHING_SCH,AIR_VELO_SCH,Yes,No,No
 People Internal Gains Nominal, FLOOR 2 EXAM 6 PEOPLE,BLDG_OCC_SCH,FLOOR 2 EXAM 6,20.90,4.2,4.2,0.200,5.000,0.300,0.700,AutoCalculate,ACTIVITY_SCH,No,3.8200E-008,0,4,Zone Averaged,WORK_EFF_SCH,Clothing Insulation Schedule,N/A,CLOTHING_SCH,AIR_VELO_SCH,Yes,No,No
 People Internal Gains Nominal, FLOOR 2 EXAM 7 PEOPLE,BLDG_OCC_SCH,FLOOR 2 EXAM 7,73.58,14.7,14.7,0.200,5.000,0.300,0.700,AutoCalculate,ACTIVITY_SCH,No,3.8200E-008,0,13,Zone Averaged,WORK_EFF_SCH,Clothing Insulation Schedule,N/A,CLOTHING_SCH,AIR_VELO_SCH,Yes,No,No
 People Internal Gains Nominal, FLOOR 2 EXAM 8 PEOPLE,BLDG_OCC_SCH,FLOOR 2 EXAM 8,25.08,5.0,5.0,0.200,5.000,0.300,0.700,AutoCalculate,ACTIVITY_SCH,No,3.8200E-008,0,5,Zone Averaged,WORK_EFF_SCH,Clothing Insulation Schedule,N/A,CLOTHING_SCH,AIR_VELO_SCH,Yes,No,No
 People Internal Gains Nominal, FLOOR 2 EXAM 9 PEOPLE,BLDG_OCC_SCH,FLOOR 2 EXAM 9,36.79,7.4,7.4,0.200,5.000,0.300,0.700,AutoCalculate,ACTIVITY_SCH,No,3.8200E-008,0,7,Zone Averaged,WORK_EFF_SCH,Clothing Insulation Schedule,N/A,CLOTHING_SCH,AIR_VELO_SCH,Yes,No,No
 People Internal Gains Nominal, FLOOR 2 LOUNGE PEOPLE,BLDG_OCC_SCH,FLOOR 2 LOUNGE,7.43,1.1,1.1,0.150,6.670,0.300,0.700,AutoCalculate,ACTIVITY_SCH,No,3.8200E-008,0,1,Zone Averaged,WORK_EFF_SCH,Clothing Insulation Schedule,N/A,CLOTHING_SCH,AIR_VELO_SCH,Yes,No,No
 People Internal Gains Nominal, FLOOR 2 NURSE STATION 1 PEOPLE,BLDG_OCC_SCH,FLOOR 2 NURSE STATION 1,13.94,2.8,2.8,0.200,5.000,0.300,0.700,AutoCalculate,ACTIVITY_SCH,No,3.8200E-008,0,3,Zone Averaged,WORK_EFF_SCH,Clothing Insulation Schedule,N/A,CLOTHING_SCH,AIR_VELO_SCH,Yes,No,No
 People Internal Gains Nominal, FLOOR 2 NURSE STATION 2 PEOPLE,BLDG_OCC_SCH,FLOOR 2 NURSE STATION 2,16.72,3.3,3.3,0.200,5.000,0.300,0.700,AutoCalculate,ACTIVITY_SCH,No,3.8200E-008,0,3,Zone Averaged,WORK_EFF_SCH,Clothing Insulation Schedule,N/A,CLOTHING_SCH,AIR_VELO_SCH,Yes,No,No
 People Internal Gains Nominal, FLOOR 2 OFFICE PEOPLE,BLDG_OCC_SCH,FLOOR 2 OFFICE,52.03,2.6,2.6,5.000E-002,20.000,0.300,0.700,AutoCalculate,ACTIVITY_SCH,No,3.8200E-008,0,2,Zone Averaged,WORK_EFF_SCH,Clothing Insulation Schedule,N/A,CLOTHING_SCH,AIR_VELO_SCH,Yes,No,No
 People Internal Gains Nominal, FLOOR 2 RECEPTION PEOPLE,BLDG_OCC_SCH,FLOOR 2 RECEPTION,91.42,27.5,27.5,0.300,3.330,0.300,0.700,AutoCalculate,ACTIVITY_SCH,No,3.8200E-008,0,25,Zone Averaged,WORK_EFF_SCH,Clothing Insulation Schedule,N/A,CLOTHING_SCH,AIR_VELO_SCH,Yes,No,No
 People Internal Gains Nominal, FLOOR 2 SCHEDULING 1 PEOPLE,BLDG_OCC_SCH,FLOOR 2 SCHEDULING 1,30.10,1.5,1.5,5.000E-002,20.000,0.300,0.700,AutoCalculate,ACTIVITY_SCH,No,3.8200E-008,0,1,Zone Averaged,WORK_EFF_SCH,Clothing Insulation Schedule,N/A,CLOTHING_SCH,AIR_VELO_SCH,Yes,No,No
 People Internal Gains Nominal, FLOOR 2 SCHEDULING 2 PEOPLE,BLDG_OCC_SCH,FLOOR 2 SCHEDULING 2,31.77,1.6,1.6,5.000E-002,20.000,0.300,0.700,AutoCalculate,ACTIVITY_SCH,No,3.8200E-008,0,1,Zone Averaged,WORK_EFF_SCH,Clothing Insulation Schedule,N/A,CLOTHING_SCH,AIR_VELO_SCH,Yes,No,No
 People Internal Gains Nominal, FLOOR 2 WORK PEOPLE,BLDG_OCC_SCH,FLOOR 2 WORK,157.01,7.9,7.9,5.000E-002,20.000,0.300,0.700,AutoCalculate,ACTIVITY_SCH,No,3.8200E-008,0,7,Zone Averaged,WORK_EFF_SCH,Clothing Insulation Schedule,N/A,CLOTHING_SCH,AIR_VELO_SCH,Yes,No,No
 People Internal Gains Nominal, FLOOR 2 X-RAY PEOPLE,BLDG_OCC_SCH,FLOOR 2 X-RAY,83.61,16.7,16.7,0.200,5.000,0.300,0.700,AutoCalculate,ACTIVITY_SCH,No,3.8200E-008,0,15,Zone Averaged,WORK_EFF_SCH,Clothing Insulation Schedule,N/A,CLOTHING_SCH,AIR_VELO_SCH,Yes,No,No
 People Internal Gains Nominal, FLOOR 3 DRESSING ROOM PEOPLE,BLDG_OCC_SCH,FLOOR 3 DRESSING ROOM,3.90,0.2,0.2,5.000E-002,20.000,0.300,0.700,AutoCalculate,ACTIVITY_SCH,No,3.8200E-008,0,0,Zone Averaged,WORK_EFF_SCH,Clothing Insulation Schedule,N/A,CLOTHING_SCH,AIR_VELO_SCH,Yes,No,No
 People Internal Gains Nominal, FLOOR 3 HUMID PEOPLE,BLDG_OCC_SCH,FLOOR 3 HUMID,10.03,0.5,0.5,5.000E-002,20.000,0.300,0.700,AutoCalculate,ACTIVITY_SCH,No,3.8200E-008,0,0,Zone Averaged,WORK_EFF_SCH,Clothing Insulation Schedule,N/A,CLOTHING_SCH,AIR_VELO_SCH,Yes,No,No
 People Internal Gains Nominal, FLOOR 3 LOCKER PEOPLE,BLDG_OCC_SCH,FLOOR 3 LOCKER,11.15,1.7,1.7,0.150,6.670,0.300,0.700,AutoCalculate,ACTIVITY_SCH,No,3.8200E-008,0,2,Zone Averaged,WORK_EFF_SCH,Clothing Insulation Schedule,N/A,CLOTHING_SCH,AIR_VELO_SCH,Yes,No,No
 People Internal Gains Nominal, FLOOR 3 LOUNGE PEOPLE,BLDG_OCC_SCH,FLOOR 3 LOUNGE,70.51,10.6,10.6,0.150,6.670,0.300,0.700,AutoCalculate,ACTIVITY_SCH,No,3.8200E-008,0,10,Zone Averaged,WORK_EFF_SCH,Clothing Insulation Schedule,N/A,CLOTHING_SCH,AIR_VELO_SCH,Yes,No,No
 People Internal Gains Nominal, FLOOR 3 OFFICE PEOPLE,BLDG_OCC_SCH,FLOOR 3 OFFICE,282.05,14.1,14.1,5.000E-002,20.000,0.300,0.700,AutoCalculate,ACTIVITY_SCH,No,3.8200E-008,0,13,Zone Averaged,WORK_EFF_SCH,Clothing Insulation Schedule,N/A,CLOTHING_SCH,AIR_VELO_SCH,Yes,No,No
 People Internal Gains Nominal, FLOOR 3 PHYSICAL THERAPY 1 PEOPLE,BLDG_OCC_SCH,FLOOR 3 PHYSICAL THERAPY 1,120.77,24.2,24.2,0.200,5.000,0.300,0.700,AutoCalculate,ACTIVITY_SCH,No,3.8200E-008,0,22,Zone Averaged,WORK_EFF_SCH,Clothing Insulation Schedule,N/A,CLOTHING_SCH,AIR_VELO_SCH,Yes,No,No
 People Internal Gains Nominal, FLOOR 3 PHYSICAL THERAPY 2 PEOPLE,BLDG_OCC_SCH,FLOOR 3 PHYSICAL THERAPY 2,55.00,11.0,11.0,0.200,5.000,0.300,0.700,AutoCalculate,ACTIVITY_SCH,No,3.8200E-008,0,10,Zone Averaged,WORK_EFF_SCH,Clothing Insulation Schedule,N/A,CLOTHING_SCH,AIR_VELO_SCH,Yes,No,No
 People Internal Gains Nominal, FLOOR 3 TREATMENT PEOPLE,BLDG_OCC_SCH,FLOOR 3 TREATMENT,44.22,8.8,8.8,0.200,5.000,0.300,0.700,AutoCalculate,ACTIVITY_SCH,No,3.8200E-008,0,8,Zone Averaged,WORK_EFF_SCH,Clothing Insulation Schedule,N/A,CLOTHING_SCH,AIR_VELO_SCH,Yes,No,No
 People Internal Gains Nominal, FLOOR 3 WORK PEOPLE,BLDG_OCC_SCH,FLOOR 3 WORK,53.33,2.7,2.7,5.000E-002,20.000,0.300,0.700,AutoCalculate,ACTIVITY_SCH,No,3.8200E-008,0,2,Zone Averaged,WORK_EFF_SCH,Clothing Insulation Schedule,N/A,CLOTHING_SCH,AIR_VELO_SCH,Yes,No,No
! <Lights Internal Gains Nominal>,Name,Schedule Name,Zone Name,Zone Floor Area {m2},# Zone Occupants,Lighting Level {W},Lights/Floor Area {W/m2},Lights per person {W/person},Fraction Return Air,Fraction Radiant,Fraction Short Wave,Fraction Convected,Fraction Replaceable,End-Use Category,Nominal Minimum Lighting Level {W},Nominal Maximum Lighting Level {W}
 Lights Internal Gains Nominal, FLOOR 1 ANESTHESIA_LIGHTS,BLDG_LIGHT_SCH,FLOOR 1 ANESTHESIA,10.03,0.0,323.983,32.290,N/A,0.000,0.700,0.200,0.100,1.000,General,16.199,291.584
 Lights Internal Gains Nominal, FLOOR 1 BIO HAZ_LIGHTS,BLDG_LIGHT_SCH,FLOOR 1 BIO HAZ,5.20,0.0,50.413,9.690,N/A,0.000,0.700,0.200,0.100,1.000,General,2.521,45.372
 Lights Internal Gains Nominal, FLOOR 1 CAFE_LIGHTS,BLDG_LIGHT_SCH,FLOOR 1 CAFE,39.02,39.0,378.097,9.690,9.690,0.000,0.700,0.200,0.100,1.000,General,18.905,340.287
 Lights Internal Gains Nominal, FLOOR 1 CLEAN WORK_LIGHTS,BLDG_LIGHT_SCH,FLOOR 1 CLEAN WORK,15.33,3.1,198.051,12.920,64.600,0.000,0.700,0.200,0.100,1.000,General,9.903,178.246
 Lights Internal Gains Nominal, FLOOR 1 CLEAN_LIGHTS,BLDG_LIGHT_SCH,FLOOR 1 CLEAN,11.71,2.3,151.239,12.920,64.600,0.000,0.700,0.200,0.100,1.000,General,7.562,136.115
 Lights Internal Gains Nominal, FLOOR 1 DICTATION_LIGHTS,BLDG_LIGHT_SCH,FLOOR 1 DICTATION,11.71,0.6,138.596,11.840,236.800,0.000,0.700,0.200,0.100,1.000,General,6.930,124.737
 Lights Internal Gains Nominal, FLOOR 1 DRESSING ROOM_LIGHTS,BLDG_LIGHT_SCH,FLOOR 1 DRESSING ROOM,4.18,0.2,49.499,11.840,236.800,0.000,0.700,0.200,0.100,1.000,General,2.475,44.549
 Lights Internal Gains Nominal, FLOOR 1 ELECTRICAL ROOM_LIGHTS,BLDG_LIGHT_SCH,FLOOR 1 ELECTRICAL ROOM,9.10,0.0,88.223,9.690,N/A,0.000,0.700,0.200,0.100,1.000,General,4.411,79.400
 Lights Internal Gains Nominal, FLOOR 1 ELEVATOR PUMP ROOM_LIGHTS,BLDG_LIGHT_SCH,FLOOR 1 ELEVATOR PUMP ROOM,8.45,0.0,81.921,9.690,N/A,0.000,0.700,0.200,0.100,1.000,General,4.096,73.729
 Lights Internal Gains Nominal, FLOOR 1 HUMID_LIGHTS,BLDG_LIGHT_SCH,FLOOR 1 HUMID,5.02,0.3,59.398,11.840,236.800,0.000,0.700,0.200,0.100,1.000,General,2.970,53.459
 Lights Internal Gains Nominal, FLOOR 1 IT HALL_LIGHTS,BLDG_LIGHT_SCH,FLOOR 1 IT HALL,13.01,0.0,139.949,10.760,N/A,0.000,0.700,0.200,0.100,1.000,General,6.997,125.954
 Lights Internal Gains Nominal, FLOOR 1 IT ROOM_LIGHTS,BLDG_LIGHT_SCH,FLOOR 1 IT ROOM,10.41,0.5,123.197,11.840,236.800,0.000,0.700,0.200,0.100,1.000,General,6.160,110.877
 Lights Internal Gains Nominal, FLOOR 1 LOBBY HALL_LIGHTS,BLDG_LIGHT_SCH,FLOOR 1 LOBBY HALL,22.30,0.0,239.913,10.760,N/A,0.000,0.700,0.200,0.100,1.000,General,11.996,215.922
 Lights Internal Gains Nominal, FLOOR 1 LOBBY TOILET_LIGHTS,BLDG_LIGHT_SCH,FLOOR 1 LOBBY TOILET,5.02,0.0,48.612,9.690,N/A,0.000,0.700,0.200,0.100,1.000,General,2.431,43.751
 Lights Internal Gains Nominal, FLOOR 1 LOBBY_LIGHTS,BLDG_LIGHT_SCH,FLOOR 1 LOBBY,57.79,17.4,808.422,13.990,46.587,0.000,0.700,0.200,0.100,1.000,General,40.421,727.580
 Lights Internal Gains Nominal, FLOOR 1 LOCKER ROOM HALL_LIGHTS,BLDG_LIGHT_SCH,FLOOR 1 LOCKER ROOM HALL,46.08,0.0,495.820,10.760,N/A,0.000,0.700,0.200,0.100,1.000,General,24.791,446.238
 Lights Internal Gains Nominal, FLOOR 1 LOCKER ROOM_LIGHTS,BLDG_LIGHT_SCH,FLOOR 1 LOCKER ROOM,61.32,9.2,527.931,8.610,57.429,0.000,0.700,0.200,0.100,1.000,General,26.397,475.138
 Lights Internal Gains Nominal, FLOOR 1 LOUNGE_LIGHTS,BLDG_LIGHT_SCH,FLOOR 1 LOUNGE,33.45,5.0,287.962,8.610,57.429,0.000,0.700,0.200,0.100,1.000,General,14.398,259.166
 Lights Internal Gains Nominal, FLOOR 1 MRI CONTROL ROOM_LIGHTS,BLDG_LIGHT_SCH,FLOOR 1 MRI CONTROL ROOM,15.61,3.1,67.269,4.310,21.550,0.000,0.700,0.200,0.100,1.000,General,3.363,60.542
 Lights Internal Gains Nominal, FLOOR 1 MRI HALL_LIGHTS,BLDG_LIGHT_SCH,FLOOR 1 MRI HALL,13.66,0.0,146.947,10.760,N/A,0.000,0.700,0.200,0.100,1.000,General,7.347,132.252
 Lights Internal Gains Nominal, FLOOR 1 MRI ROOM_LIGHTS,BLDG_LIGHT_SCH,FLOOR 1 MRI ROOM,40.88,8.2,176.181,4.310,21.550,0.000,0.700,0.200,0.100,1.000,General,8.809,158.563
 Lights Internal Gains Nominal, FLOOR 1 MRI TOILET_LIGHTS,BLDG_LIGHT_SCH,FLOOR 1 MRI TOILET,5.02,0.0,48.612,9.690,N/A,0.000,0.700,0.200,0.100,1.000,General,2.431,43.751
 Lights Internal Gains Nominal, FLOOR 1 MED GAS_LIGHTS,BLDG_LIGHT_SCH,FLOOR 1 MED GAS,5.20,0.0,50.413,9.690,N/A,0.000,0.700,0.200,0.100,1.000,General,2.521,45.372
 Lights Internal Gains Nominal, FLOOR 1 NOURISHMENT_LIGHTS,BLDG_LIGHT_SCH,FLOOR 1 NOURISHMENT,16.91,3.4,181.934,10.760,53.800,0.000,0.700,0.200,0.100,1.000,General,9.097,163.740
 Lights Internal Gains Nominal, FLOOR 1 NURSE HALL_LIGHTS,BLDG_LIGHT_SCH,FLOOR 1 NURSE HALL,46.08,0.0,495.820,10.760,N/A,0.000,0.700,0.200,0.100,1.000,General,24.791,446.238
 Lights Internal Gains Nominal, FLOOR 1 NURSE JANITOR_LIGHTS,BLDG_LIGHT_SCH,FLOOR 1 NURSE JANITOR,5.02,0.0,48.612,9.690,N/A,0.000,0.700,0.200,0.100,1.000,General,2.431,43.751
 Lights Internal Gains Nominal, FLOOR 1 NURSE STATION_LIGHTS,BLDG_LIGHT_SCH,FLOOR 1 NURSE STATION,24.25,4.8,260.905,10.760,53.800,0.000,0.700,0.200,0.100,1.000,General,13.045,234.815
 Lights Internal Gains Nominal, FLOOR 1 NURSE TOILET_LIGHTS,BLDG_LIGHT_SCH,FLOOR 1 NURSE TOILET,5.02,0.0,48.612,9.690,N/A,0.000,0.700,0.200,0.100,1.000,General,2.431,43.751
 Lights Internal Gains Nominal, FLOOR 1 OFFICE_LIGHTS,BLDG_LIGHT_SCH,FLOOR 1 OFFICE,44.87,2.2,531.286,11.840,236.800,0.000,0.700,0.200,0.100,1.000,General,26.564,478.158
 Lights Internal Gains Nominal, FLOOR 1 OPERATING ROOM 1_LIGHTS,BLDG_LIGHT_SCH,FLOOR 1 OPERATING ROOM 1,42.74,8.5,1011.974,23.680,118.400,0.000,0.700,0.200,0.100,1.000,General,50.599,910.777
 Lights Internal Gains Nominal, FLOOR 1 OPERATING ROOM 2_LIGHTS,BLDG_LIGHT_SCH,FLOOR 1 OPERATING ROOM 2,44.59,8.9,1055.973,23.680,118.400,0.000,0.700,0.200,0.100,1.000,General,52.799,950.376
 Lights Internal Gains Nominal, FLOOR 1 OPERATING ROOM 3_LIGHTS,BLDG_LIGHT_SCH,FLOOR 1 OPERATING ROOM 3,44.22,8.8,1047.173,23.680,118.400,0.000,0.700,0.200,0.100,1.000,General,52.359,942.456
 Lights Internal Gains Nominal, FLOOR 1 PACU_LIGHTS,BLDG_LIGHT_SCH,FLOOR 1 PACU,10.03,2.0,86.389,8.610,43.050,0.000,0.700,0.200,0.100,1.000,General,4.319,77.750
 Lights Internal Gains Nominal, FLOOR 1 PRE-OP HALL_LIGHTS,BLDG_LIGHT_SCH,FLOOR 1 PRE-OP HALL,49.05,0.0,527.808,10.760,N/A,0.000,0.700,0.200,0.100,1.000,General,26.390,475.027
 Lights Internal Gains Nominal, FLOOR 1 PRE-OP ROOM 1_LIGHTS,BLDG_LIGHT_SCH,FLOOR 1 PRE-OP ROOM 1,17.56,1.8,132.217,7.530,75.300,0.000,0.700,0.200,0.100,1.000,General,6.611,118.995
 Lights Internal Gains Nominal, FLOOR 1 PRE-OP ROOM 2_LIGHTS,BLDG_LIGHT_SCH,FLOOR 1 PRE-OP ROOM 2,31.40,3.1,236.451,7.530,75.300,0.000,0.700,0.200,0.100,1.000,General,11.823,212.806
 Lights Internal Gains Nominal, FLOOR 1 PRE-OP TOILET_LIGHTS,BLDG_LIGHT_SCH,FLOOR 1 PRE-OP TOILET,5.02,0.0,48.612,9.690,N/A,0.000,0.700,0.200,0.100,1.000,General,2.431,43.751
 Lights Internal Gains Nominal, FLOOR 1 PROCEDURE ROOM_LIGHTS,BLDG_LIGHT_SCH,FLOOR 1 PROCEDURE ROOM,26.48,5.3,626.984,23.680,118.400,0.000,0.700,0.200,0.100,1.000,General,31.349,564.286
 Lights Internal Gains Nominal, FLOOR 1 RECEPTION HALL_LIGHTS,BLDG_LIGHT_SCH,FLOOR 1 RECEPTION HALL,11.89,0.0,127.953,10.760,N/A,0.000,0.700,0.200,0.100,1.000,General,6.398,115.158
 Lights Internal Gains Nominal, FLOOR 1 RECEPTION_LIGHTS,BLDG_LIGHT_SCH,FLOOR 1 RECEPTION,47.29,14.2,661.554,13.990,46.587,0.000,0.700,0.200,0.100,1.000,General,33.078,595.399
 Lights Internal Gains Nominal, FLOOR 1 RECOVERY ROOM_LIGHTS,BLDG_LIGHT_SCH,FLOOR 1 RECOVERY ROOM,50.17,10.0,431.943,8.610,43.050,0.000,0.700,0.200,0.100,1.000,General,21.597,388.749
 Lights Internal Gains Nominal, FLOOR 1 SCHEDULING_LIGHTS,BLDG_LIGHT_SCH,FLOOR 1 SCHEDULING,11.06,0.6,130.897,11.840,236.800,0.000,0.700,0.200,0.100,1.000,General,6.545,117.807
 Lights Internal Gains Nominal, FLOOR 1 SCRUB_LIGHTS,BLDG_LIGHT_SCH,FLOOR 1 SCRUB,7.80,0.0,83.969,10.760,N/A,0.000,0.700,0.200,0.100,1.000,General,4.198,75.573
 Lights Internal Gains Nominal, FLOOR 1 SOIL HOLD_LIGHTS,BLDG_LIGHT_SCH,FLOOR 1 SOIL HOLD,5.20,1.0,67.217,12.920,64.600,0.000,0.700,0.200,0.100,1.000,General,3.361,60.495
 Lights Internal Gains Nominal, FLOOR 1 SOIL WORK_LIGHTS,BLDG_LIGHT_SCH,FLOOR 1 SOIL WORK,16.72,3.3,216.055,12.920,64.600,0.000,0.700,0.200,0.100,1.000,General,10.803,194.450
 Lights Internal Gains Nominal, FLOOR 1 SOIL_LIGHTS,BLDG_LIGHT_SCH,FLOOR 1 SOIL,11.71,2.3,151.239,12.920,64.600,0.000,0.700,0.200,0.100,1.000,General,7.562,136.115
 Lights Internal Gains Nominal, FLOOR 1 STEP DOWN_LIGHTS,BLDG_LIGHT_SCH,FLOOR 1 STEP DOWN,27.87,5.6,239.969,8.610,43.050,0.000,0.700,0.200,0.100,1.000,General,11.998,215.972
 Lights Internal Gains Nominal, FLOOR 1 STERILE HALL_LIGHTS,BLDG_LIGHT_SCH,FLOOR 1 STERILE HALL,57.23,0.0,615.776,10.760,N/A,0.000,0.700,0.200,0.100,1.000,General,30.789,554.199
 Lights Internal Gains Nominal, FLOOR 1 STERILE STORAGE_LIGHTS,BLDG_LIGHT_SCH,FLOOR 1 STERILE STORAGE,36.79,0.0,356.491,9.690,N/A,0.000,0.700,0.200,0.100,1.000,General,17.825,320.842
 Lights Internal Gains Nominal, FLOOR 1 STORAGE_LIGHTS,BLDG_LIGHT_SCH,FLOOR 1 STORAGE,85.47,0.0,828.212,9.690,N/A,0.000,0.700,0.200,0.100,1.000,General,41.411,745.391
 Lights Internal Gains Nominal, FLOOR 1 SUB-STERILE_LIGHTS,BLDG_LIGHT_SCH,FLOOR 1 SUB-STERILE,18.21,0.0,195.929,10.760,N/A,0.000,0.700,0.200,0.100,1.000,General,9.796,176.336
 Lights Internal Gains Nominal, FLOOR 1 UTILITY HALL_LIGHTS,BLDG_LIGHT_SCH,FLOOR 1 UTILITY HALL,23.78,0.0,255.907,10.760,N/A,0.000,0.700,0.200,0.100,1.000,General,12.795,230.316
 Lights Internal Gains Nominal, FLOOR 1 UTILITY JANITOR_LIGHTS,BLDG_LIGHT_SCH,FLOOR 1 UTILITY JANITOR,3.90,0.0,37.810,9.690,N/A,0.000,0.700,0.200,0.100,1.000,General,1.890,34.029
 Lights Internal Gains Nominal, FLOOR 1 UTILITY ROOM_LIGHTS,BLDG_LIGHT_SCH,FLOOR 1 UTILITY ROOM,33.45,0.0,324.083,9.690,N/A,0.000,0.700,0.200,0.100,1.000,General,16.204,291.675
 Lights Internal Gains Nominal, FLOOR 1 VESTIBULE_LIGHTS,BLDG_LIGHT_SCH,FLOOR 1 VESTIBULE,6.69,0.0,71.974,10.760,N/A,0.000,0.700,0.200,0.100,1.000,General,3.599,64.776
 Lights Internal Gains Nominal, FLOOR 2 CONFERENCE TOILET_LIGHTS,BLDG_LIGHT_SCH,FLOOR 2 CONFERENCE TOILET,5.95,0.0,57.615,9.690,N/A,0.000,0.700,0.200,0.100,1.000,General,2.881,51.853
 Lights Internal Gains Nominal, FLOOR 2 CONFERENCE_LIGHTS,BLDG_LIGHT_SCH,FLOOR 2 CONFERENCE,31.22,15.6,436.704,13.990,27.980,0.000,0.700,0.200,0.100,1.000,General,21.835,393.033
 Lights Internal Gains Nominal, FLOOR 2 DICTATION_LIGHTS,BLDG_LIGHT_SCH,FLOOR 2 DICTATION,6.50,0.3,76.998,11.840,236.800,0.000,0.700,0.200,0.100,1.000,General,3.850,69.298
 Lights Internal Gains Nominal, FLOOR 2 EXAM 1_LIGHTS,BLDG_LIGHT_SCH,FLOOR 2 EXAM 1,33.45,6.7,540.138,16.150,80.750,0.000,0.700,0.200,0.100,1.000,General,27.007,486.124
 Lights Internal Gains Nominal, FLOOR 2 EXAM 2_LIGHTS,BLDG_LIGHT_SCH,FLOOR 2 EXAM 2,50.17,10.0,810.207,16.150,80.750,0.000,0.700,0.200,0.100,1.000,General,40.510,729.187
 Lights Internal Gains Nominal, FLOOR 2 EXAM 3_LIGHTS,BLDG_LIGHT_SCH,FLOOR 2 EXAM 3,66.89,13.4,1080.277,16.150,80.750,0.000,0.700,0.200,0.100,1.000,General,54.014,972.249
 Lights Internal Gains Nominal, FLOOR 2 EXAM 4_LIGHTS,BLDG_LIGHT_SCH,FLOOR 2 EXAM 4,7.80,1.6,126.032,16.150,80.750,0.000,0.700,0.200,0.100,1.000,General,6.302,113.429
 Lights Internal Gains Nominal, FLOOR 2 EXAM 5_LIGHTS,BLDG_LIGHT_SCH,FLOOR 2 EXAM 5,32.52,6.5,525.134,16.150,80.750,0.000,0.700,0.200,0.100,1.000,General,26.257,472.621
 Lights Internal Gains Nominal, FLOOR 2 EXAM 6_LIGHTS,BLDG_LIGHT_SCH,FLOOR 2 EXAM 6,20.90,4.2,337.586,16.150,80.750,0.000,0.700,0.200,0.100,1.000,General,16.879,303.828
 Lights Internal Gains Nominal, FLOOR 2 EXAM 7_LIGHTS,BLDG_LIGHT_SCH,FLOOR 2 EXAM 7,73.58,14.7,1188.304,16.150,80.750,0.000,0.700,0.200,0.100,1.000,General,59.415,1069.474
 Lights Internal Gains Nominal, FLOOR 2 EXAM 8_LIGHTS,BLDG_LIGHT_SCH,FLOOR 2 EXAM 8,25.08,5.0,405.104,16.150,80.750,0.000,0.700,0.200,0.100,1.000,General,20.255,364.593
 Lights Internal Gains Nominal, FLOOR 2 EXAM 9_LIGHTS,BLDG_LIGHT_SCH,FLOOR 2 EXAM 9,36.79,7.4,594.152,16.150,80.750,0.000,0.700,0.200,0.100,1.000,General,29.708,534.737
 Lights Internal Gains Nominal, FLOOR 2 EXAM HALL 1_LIGHTS,BLDG_LIGHT_SCH,FLOOR 2 EXAM HALL 1,16.72,0.0,179.935,10.760,N/A,0.000,0.700,0.200,0.100,1.000,General,8.997,161.941
 Lights Internal Gains Nominal, FLOOR 2 EXAM HALL 2_LIGHTS,BLDG_LIGHT_SCH,FLOOR 2 EXAM HALL 2,16.72,0.0,179.935,10.760,N/A,0.000,0.700,0.200,0.100,1.000,General,8.997,161.941
 Lights Internal Gains Nominal, FLOOR 2 EXAM HALL 3_LIGHTS,BLDG_LIGHT_SCH,FLOOR 2 EXAM HALL 3,16.72,0.0,179.935,10.760,N/A,0.000,0.700,0.200,0.100,1.000,General,8.997,161.941
 Lights Internal Gains Nominal, FLOOR 2 EXAM HALL 4_LIGHTS,BLDG_LIGHT_SCH,FLOOR 2 EXAM HALL 4,18.39,0.0,197.928,10.760,N/A,0.000,0.700,0.200,0.100,1.000,General,9.896,178.135
 Lights Internal Gains Nominal, FLOOR 2 EXAM HALL 5_LIGHTS,BLDG_LIGHT_SCH,FLOOR 2 EXAM HALL 5,18.39,0.0,197.928,10.760,N/A,0.000,0.700,0.200,0.100,1.000,General,9.896,178.135
 Lights Internal Gains Nominal, FLOOR 2 EXAM HALL 6_LIGHTS,BLDG_LIGHT_SCH,FLOOR 2 EXAM HALL 6,18.39,0.0,197.928,10.760,N/A,0.000,0.700,0.200,0.100,1.000,General,9.896,178.135
 Lights Internal Gains Nominal, FLOOR 2 JANITOR_LIGHTS,BLDG_LIGHT_SCH,FLOOR 2 JANITOR,5.85,0.0,56.715,9.690,N/A,0.000,0.700,0.200,0.100,1.000,General,2.836,51.043
 Lights Internal Gains Nominal, FLOOR 2 LOUNGE_LIGHTS,BLDG_LIGHT_SCH,FLOOR 2 LOUNGE,7.43,1.1,63.992,8.610,57.429,0.000,0.700,0.200,0.100,1.000,General,3.200,57.592
 Lights Internal Gains Nominal, FLOOR 2 NURSE STATION 1_LIGHTS,BLDG_LIGHT_SCH,FLOOR 2 NURSE STATION 1,13.94,2.8,149.946,10.760,53.800,0.000,0.700,0.200,0.100,1.000,General,7.497,134.951
 Lights Internal Gains Nominal, FLOOR 2 NURSE STATION 2_LIGHTS,BLDG_LIGHT_SCH,FLOOR 2 NURSE STATION 2,16.72,3.3,179.935,10.760,53.800,0.000,0.700,0.200,0.100,1.000,General,8.997,161.941
 Lights Internal Gains Nominal, FLOOR 2 OFFICE HALL_LIGHTS,BLDG_LIGHT_SCH,FLOOR 2 OFFICE HALL,41.25,0.0,443.839,10.760,N/A,0.000,0.700,0.200,0.100,1.000,General,22.192,399.455
 Lights Internal Gains Nominal, FLOOR 2 OFFICE_LIGHTS,BLDG_LIGHT_SCH,FLOOR 2 OFFICE,52.03,2.6,615.984,11.840,236.800,0.000,0.700,0.200,0.100,1.000,General,30.799,554.386
 Lights Internal Gains Nominal, FLOOR 2 RECEPTION HALL_LIGHTS,BLDG_LIGHT_SCH,FLOOR 2 RECEPTION HALL,52.40,0.0,563.795,10.760,N/A,0.000,0.700,0.200,0.100,1.000,General,28.190,507.416
 Lights Internal Gains Nominal, FLOOR 2 RECEPTION TOILET_LIGHTS,BLDG_LIGHT_SCH,FLOOR 2 RECEPTION TOILET,11.71,0.0,113.429,9.690,N/A,0.000,0.700,0.200,0.100,1.000,General,5.671,102.086
 Lights Internal Gains Nominal, FLOOR 2 RECEPTION_LIGHTS,BLDG_LIGHT_SCH,FLOOR 2 RECEPTION,91.42,27.5,1278.918,13.990,46.587,0.000,0.700,0.200,0.100,1.000,General,63.946,1151.026
 Lights Internal Gains Nominal, FLOOR 2 SCHEDULING 1_LIGHTS,BLDG_LIGHT_SCH,FLOOR 2 SCHEDULING 1,30.10,1.5,356.391,11.840,236.800,0.000,0.700,0.200,0.100,1.000,General,17.820,320.752
 Lights Internal Gains Nominal, FLOOR 2 SCHEDULING 2_LIGHTS,BLDG_LIGHT_SCH,FLOOR 2 SCHEDULING 2,31.77,1.6,376.190,11.840,236.800,0.000,0.700,0.200,0.100,1.000,General,18.810,338.571
 Lights Internal Gains Nominal, FLOOR 2 STORAGE 1_LIGHTS,BLDG_LIGHT_SCH,FLOOR 2 STORAGE 1,5.20,0.0,50.413,9.690,N/A,0.000,0.700,0.200,0.100,1.000,General,2.521,45.372
 Lights Internal Gains Nominal, FLOOR 2 STORAGE 2_LIGHTS,BLDG_LIGHT_SCH,FLOOR 2 STORAGE 2,11.15,0.0,108.028,9.690,N/A,0.000,0.700,0.200,0.100,1.000,General,5.401,97.225
 Lights Internal Gains Nominal, FLOOR 2 STORAGE 3_LIGHTS,BLDG_LIGHT_SCH,FLOOR 2 STORAGE 3,13.38,0.0,129.633,9.690,N/A,0.000,0.700,0.200,0.100,1.000,General,6.482,116.670
 Lights Internal Gains Nominal, FLOOR 2 UTILITY_LIGHTS,BLDG_LIGHT_SCH,FLOOR 2 UTILITY,11.71,0.0,113.429,9.690,N/A,0.000,0.700,0.200,0.100,1.000,General,5.671,102.086
 Lights Internal Gains Nominal, FLOOR 2 WORK HALL_LIGHTS,BLDG_LIGHT_SCH,FLOOR 2 WORK HALL,77.48,0.0,833.697,10.760,N/A,0.000,0.700,0.200,0.100,1.000,General,41.685,750.327
 Lights Internal Gains Nominal, FLOOR 2 WORK TOILET_LIGHTS,BLDG_LIGHT_SCH,FLOOR 2 WORK TOILET,5.02,0.0,48.612,9.690,N/A,0.000,0.700,0.200,0.100,1.000,General,2.431,43.751
 Lights Internal Gains Nominal, FLOOR 2 WORK_LIGHTS,BLDG_LIGHT_SCH,FLOOR 2 WORK,157.01,7.9,1858.953,11.840,236.800,0.000,0.700,0.200,0.100,1.000,General,92.948,1673.057
 Lights Internal Gains Nominal, FLOOR 2 X-RAY_LIGHTS,BLDG_LIGHT_SCH,FLOOR 2 X-RAY,83.61,16.7,360.371,4.310,21.550,0.000,0.700,0.200,0.100,1.000,General,18.019,324.334
 Lights Internal Gains Nominal, FLOOR 3 DRESSING ROOM_LIGHTS,BLDG_LIGHT_SCH,FLOOR 3 DRESSING ROOM,3.90,0.2,46.199,11.840,236.800,0.000,0.700,0.200,0.100,1.000,General,2.310,41.579
 Lights Internal Gains Nominal, FLOOR 3 ELEVATOR HALL_LIGHTS,BLDG_LIGHT_SCH,FLOOR 3 ELEVATOR HALL,34.37,0.0,369.866,10.760,N/A,0.000,0.700,0.200,0.100,1.000,General,18.493,332.879
 Lights Internal Gains Nominal, FLOOR 3 HUMID_LIGHTS,BLDG_LIGHT_SCH,FLOOR 3 HUMID,10.03,0.5,118.797,11.840,236.800,0.000,0.700,0.200,0.100,1.000,General,5.940,106.917
 Lights Internal Gains Nominal, FLOOR 3 JANITOR_LIGHTS,BLDG_LIGHT_SCH,FLOOR 3 JANITOR,5.85,0.0,56.715,9.690,N/A,0.000,0.700,0.200,0.100,1.000,General,2.836,51.043
 Lights Internal Gains Nominal, FLOOR 3 LOCKER_LIGHTS,BLDG_LIGHT_SCH,FLOOR 3 LOCKER,11.15,1.7,95.987,8.610,57.429,0.000,0.700,0.200,0.100,1.000,General,4.799,86.389
 Lights Internal Gains Nominal, FLOOR 3 LOUNGE TOILET_LIGHTS,BLDG_LIGHT_SCH,FLOOR 3 LOUNGE TOILET,17.84,0.0,172.844,9.690,N/A,0.000,0.700,0.200,0.100,1.000,General,8.642,155.560
 Lights Internal Gains Nominal, FLOOR 3 LOUNGE_LIGHTS,BLDG_LIGHT_SCH,FLOOR 3 LOUNGE,70.51,10.6,607.120,8.610,57.429,0.000,0.700,0.200,0.100,1.000,General,30.356,546.408
 Lights Internal Gains Nominal, FLOOR 3 MECHANICAL HALL_LIGHTS,BLDG_LIGHT_SCH,FLOOR 3 MECHANICAL HALL,27.87,0.0,299.891,10.760,N/A,0.000,0.700,0.200,0.100,1.000,General,14.995,269.902
 Lights Internal Gains Nominal, FLOOR 3 MECHANICAL_LIGHTS,BLDG_LIGHT_SCH,FLOOR 3 MECHANICAL,32.52,0.0,315.081,9.690,N/A,0.000,0.700,0.200,0.100,1.000,General,15.754,283.573
 Lights Internal Gains Nominal, FLOOR 3 OFFICE HALL_LIGHTS,BLDG_LIGHT_SCH,FLOOR 3 OFFICE HALL,77.48,0.0,833.697,10.760,N/A,0.000,0.700,0.200,0.100,1.000,General,41.685,750.327
 Lights Internal Gains Nominal, FLOOR 3 OFFICE TOILET_LIGHTS,BLDG_LIGHT_SCH,FLOOR 3 OFFICE TOILET,5.02,0.0,48.612,9.690,N/A,0.000,0.700,0.200,0.100,1.000,General,2.431,43.751
 Lights Internal Gains Nominal, FLOOR 3 OFFICE_LIGHTS,BLDG_LIGHT_SCH,FLOOR 3 OFFICE,282.05,14.1,3339.515,11.840,236.800,0.000,0.700,0.200,0.100,1.000,General,166.976,3005.563
 Lights Internal Gains Nominal, FLOOR 3 PHYSICAL THERAPY 1_LIGHTS,BLDG_LIGHT_SCH,FLOOR 3 PHYSICAL THERAPY 1,120.77,24.2,1170.300,9.690,48.450,0.000,0.700,0.200,0.100,1.000,General,58.515,1053.270
 Lights Internal Gains Nominal, FLOOR 3 PHYSICAL THERAPY 2_LIGHTS,BLDG_LIGHT_SCH,FLOOR 3 PHYSICAL THERAPY 2,55.00,11.0,532.936,9.690,48.450,0.000,0.700,0.200,0.100,1.000,General,26.647,479.643
 Lights Internal Gains Nominal, FLOOR 3 PHYSICAL THERAPY TOILET_LIGHTS,BLDG_LIGHT_SCH,FLOOR 3 PHYSICAL THERAPY TOILET,7.80,0.0,75.619,9.690,N/A,0.000,0.700,0.200,0.100,1.000,General,3.781,68.057
 Lights Internal Gains Nominal, FLOOR 3 STORAGE 1_LIGHTS,BLDG_LIGHT_SCH,FLOOR 3 STORAGE 1,10.03,0.0,97.225,9.690,N/A,0.000,0.700,0.200,0.100,1.000,General,4.861,87.502
 Lights Internal Gains Nominal, FLOOR 3 STORAGE 2_LIGHTS,BLDG_LIGHT_SCH,FLOOR 3 STORAGE 2,7.80,0.0,75.619,9.690,N/A,0.000,0.700,0.200,0.100,1.000,General,3.781,68.057
 Lights Internal Gains Nominal, FLOOR 3 TREATMENT_LIGHTS,BLDG_LIGHT_SCH,FLOOR 3 TREATMENT,44.22,8.8,714.183,16.150,80.750,0.000,0.700,0.200,0.100,1.000,General,35.709,642.765
 Lights Internal Gains Nominal, FLOOR 3 UTILITY_LIGHTS,BLDG_LIGHT_SCH,FLOOR 3 UTILITY,20.07,0.0,194.450,9.690,N/A,0.000,0.700,0.200,0.100,1.000,General,9.722,175.005
 Lights Internal Gains Nominal, FLOOR 3 WORK_LIGHTS,BLDG_LIGHT_SCH,FLOOR 3 WORK,53.33,2.7,631.384,11.840,236.800,0.000,0.700,0.200,0.100,1.000,General,31.569,568.246
 Lights Internal Gains Nominal, NE STAIR_LIGHTS,BLDG_LIGHT_SCH,NE STAIR,15.61,0.0,167.939,10.760,N/A,0.000,0.700,0.200,0.100,1.000,General,8.397,151.145
 Lights Internal Gains Nominal, NW ELEVATOR_LIGHTS,BLDG_LIGHT_SCH,NW ELEVATOR,13.01,0.0,139.949,10.760,N/A,0.000,0.700,0.200,0.100,1.000,General,6.997,125.954
 Lights Internal Gains Nominal, NW STAIR_LIGHTS,BLDG_LIGHT_SCH,NW STAIR,17.84,0.0,191.930,10.760,N/A,0.000,0.700,0.200,0.100,1.000,General,9.597,172.737
 Lights Internal Gains Nominal, SW STAIR_LIGHTS,BLDG_LIGHT_SCH,SW STAIR,8.92,0.0,95.965,10.760,N/A,0.000,0.700,0.200,0.100,1.000,General,4.798,86.369
! <ElectricEquipment Internal Gains Nominal>,Name,Schedule Name,Zone Name,Zone Floor Area {m2},# Zone Occupants,Equipment Level {W},Equipment/Floor Area {W/m2},Equipment per person {W/person},Fraction Latent,Fraction Radiant,Fraction Lost,Fraction Convected,End-Use SubCategory,Nominal Minimum Equipment Level {W},Nominal Maximum Equipment Level {W}
 ElectricEquipment Internal Gains Nominal, FLOOR 1 ANESTHESIA_PLUGMISC_EQUIP,BLDG_EQUIP_SCH,FLOOR 1 ANESTHESIA,10.03,0.0,216.022,21.530,N/A,0.000,0.500,0.000,0.500,General,64.807,216.022
 ElectricEquipment Internal Gains Nominal, FLOOR 1 BIO HAZ_PLUGMISC_EQUIP,BLDG_EQUIP_SCH,FLOOR 1 BIO HAZ,5.20,0.0,5.619,1.080,N/A,0.000,0.500,0.000,0.500,General,1.686,5.619
 ElectricEquipment Internal Gains Nominal, FLOOR 1 CAFE_PLUGMISC_EQUIP,BLDG_EQUIP_SCH,FLOOR 1 CAFE,39.02,39.0,419.847,10.760,10.760,0.000,0.500,0.000,0.500,General,125.954,419.847
 ElectricEquipment Internal Gains Nominal, FLOOR 1 CLEAN WORK_PLUGMISC_EQUIP,BLDG_EQUIP_SCH,FLOOR 1 CLEAN WORK,15.33,3.1,330.033,21.530,107.650,0.000,0.500,0.000,0.500,General,99.010,330.033
 ElectricEquipment Internal Gains Nominal, FLOOR 1 CLEAN_PLUGMISC_EQUIP,BLDG_EQUIP_SCH,FLOOR 1 CLEAN,11.71,2.3,252.026,21.530,107.650,0.000,0.500,0.000,0.500,General,75.608,252.026
 ElectricEquipment Internal Gains Nominal, FLOOR 1 DICTATION_PLUGMISC_EQUIP,BLDG_EQUIP_SCH,FLOOR 1 DICTATION,11.71,0.6,138.596,11.840,236.800,0.000,0.500,0.000,0.500,General,41.579,138.596
 ElectricEquipment Internal Gains Nominal, FLOOR 1 DRESSING ROOM_PLUGMISC_EQUIP,BLDG_EQUIP_SCH,FLOOR 1 DRESSING ROOM,4.18,0.2,49.499,11.840,236.800,0.000,0.500,0.000,0.500,General,14.850,49.499
 ElectricEquipment Internal Gains Nominal, FLOOR 1 ELECTRICAL ROOM_PLUGMISC_EQUIP,BLDG_EQUIP_SCH,FLOOR 1 ELECTRICAL ROOM,9.10,0.0,490.004,53.820,N/A,0.000,0.300,0.700,0.000,General,147.001,490.004
[...]
 Warmup Convergence Information,FLOOR 1 HUMID,RunPeriod: BALTIMORE MD USA TMY2-93721 WMO#=724060,0.2450127418,0.2350770618,Pass,Pass,0.5420815192,0.4964903911,Pass,Pass
 Warmup Convergence Information,FLOOR 1 IT HALL,RunPeriod: BALTIMORE MD USA TMY2-93721 WMO#=724060,0.1563827417,0.1488934967,Pass,Pass,0.6303170597,0.5916956781,Pass,Pass
 Warmup Convergence Information,FLOOR 1 IT ROOM,RunPeriod: BALTIMORE MD USA TMY2-93721 WMO#=724060,0.2547571347,0.2430087035,Pass,Pass,0.5544022040,0.5126508757,Pass,Pass
 Warmup Convergence Information,FLOOR 1 LOBBY,RunPeriod: BALTIMORE MD USA TMY2-93721 WMO#=724060,0.2752781826,0.3010353053,Pass,Pass,0.5720611919,0.5147326907,Pass,Pass
 Warmup Convergence Information,FLOOR 1 LOBBY HALL,RunPeriod: BALTIMORE MD USA TMY2-93721 WMO#=724060,0.1577273497,0.1466411923,Pass,Pass,0.6031096588,0.5489204178,Pass,Pass
 Warmup Convergence Information,FLOOR 1 LOBBY TOILET,RunPeriod: BALTIMORE MD USA TMY2-93721 WMO#=724060,1.4865075832E-002,9.2717762134E-003,Pass,Pass,0.0000000000,0.0000000000,Pass,Pass
 Warmup Convergence Information,FLOOR 1 LOCKER ROOM,RunPeriod: BALTIMORE MD USA TMY2-93721 WMO#=724060,0.2656485785,0.3035122005,Pass,Pass,0.5664424317,0.5203330891,Pass,Pass
 Warmup Convergence Information,FLOOR 1 LOCKER ROOM HALL,RunPeriod: BALTIMORE MD USA TMY2-93721 WMO#=724060,0.1575242633,0.1470293143,Pass,Pass,0.6065772574,0.5540909581,Pass,Pass
 Warmup Convergence Information,FLOOR 1 LOUNGE,RunPeriod: BALTIMORE MD USA TMY2-93721 WMO#=724060,0.4928758369,0.4735552792,Pass,Pass,0.5371380760,0.4854816089,Pass,Pass
 Warmup Convergence Information,FLOOR 1 MRI CONTROL ROOM,RunPeriod: BALTIMORE MD USA TMY2-93721 WMO#=724060,0.2745058701,0.2924634406,Pass,Pass,0.6096489674,0.5601731936,Pass,Pass
 Warmup Convergence Information,FLOOR 1 MRI HALL,RunPeriod: BALTIMORE MD USA TMY2-93721 WMO#=724060,0.1552048754,0.1519774323,Pass,Pass,0.6186176711,0.5711852563,Pass,Pass
 Warmup Convergence Information,FLOOR 1 MRI ROOM,RunPeriod: BALTIMORE MD USA TMY2-93721 WMO#=724060,0.3922656266,0.4569552389,Pass,Pass,0.6936425364,0.9824189083,Pass,Pass
 Warmup Convergence Information,FLOOR 1 MRI TOILET,RunPeriod: BALTIMORE MD USA TMY2-93721 WMO#=724060,1.1280880703E-002,7.7282872824E-003,Pass,Pass,0.0000000000,0.0000000000,Pass,Pass
 Warmup Convergence Information,FLOOR 1 MED GAS,RunPeriod: BALTIMORE MD USA TMY2-93721 WMO#=724060,0.9291068313,0.9498088698,Pass,Pass,0.5642657989,0.4981446856,Pass,Pass
 Warmup Convergence Information,FLOOR 1 NOURISHMENT,RunPeriod: BALTIMORE MD USA TMY2-93721 WMO#=724060,0.3632204978,0.3648848675,Pass,Pass,0.5320833194,0.4907184437,Pass,Pass
 Warmup Convergence Information,FLOOR 1 NURSE HALL,RunPeriod: BALTIMORE MD USA TMY2-93721 WMO#=724060,0.1575242633,0.1470293143,Pass,Pass,0.6065772574,0.5540909581,Pass,Pass
 Warmup Convergence Information,FLOOR 1 NURSE JANITOR,RunPeriod: BALTIMORE MD USA TMY2-93721 WMO#=724060,7.5489862005E-004,1.0005071164E-003,Pass,Pass,0.0000000000,0.0000000000,Pass,Pass
 Warmup Convergence Information,FLOOR 1 NURSE STATION,RunPeriod: BALTIMORE MD USA TMY2-93721 WMO#=724060,0.3704226039,0.3707085624,Pass,Pass,0.5365549206,0.4939455664,Pass,Pass
 Warmup Convergence Information,FLOOR 1 NURSE TOILET,RunPeriod: BALTIMORE MD USA TMY2-93721 WMO#=724060,1.0875693394E-003,1.2280900969E-003,Pass,Pass,0.0000000000,0.0000000000,Pass,Pass
 Warmup Convergence Information,FLOOR 1 OFFICE,RunPeriod: BALTIMORE MD USA TMY2-93721 WMO#=724060,0.2616675265,0.2517605633,Pass,Pass,0.5559287227,0.5162224985,Pass,Pass
 Warmup Convergence Information,FLOOR 1 OPERATING ROOM 1,RunPeriod: BALTIMORE MD USA TMY2-93721 WMO#=724060,0.7969340443,0.9025891298,Pass,Pass,0.5497762330,0.8947878748,Pass,Pass
 Warmup Convergence Information,FLOOR 1 OPERATING ROOM 2,RunPeriod: BALTIMORE MD USA TMY2-93721 WMO#=724060,0.9975290199,1.0356421820,Pass,Pass,0.5043494758,0.5269945754,Pass,Pass
 Warmup Convergence Information,FLOOR 1 OPERATING ROOM 3,RunPeriod: BALTIMORE MD USA TMY2-93721 WMO#=724060,1.2140728521,1.1633123414,Pass,Pass,0.4980129483,0.4965307242,Pass,Pass
 Warmup Convergence Information,FLOOR 1 PACU,RunPeriod: BALTIMORE MD USA TMY2-93721 WMO#=724060,0.4733914041,0.4669505102,Pass,Pass,0.5235067571,0.4810522971,Pass,Pass
 Warmup Convergence Information,FLOOR 1 PRE-OP HALL,RunPeriod: BALTIMORE MD USA TMY2-93721 WMO#=724060,0.1575040611,0.1469469898,Pass,Pass,0.6071811474,0.5549101357,Pass,Pass
 Warmup Convergence Information,FLOOR 1 PRE-OP ROOM 1,RunPeriod: BALTIMORE MD USA TMY2-93721 WMO#=724060,0.2653774322,0.2750459153,Pass,Pass,0.5762577079,0.5232417410,Pass,Pass
 Warmup Convergence Information,FLOOR 1 PRE-OP ROOM 2,RunPeriod: BALTIMORE MD USA TMY2-93721 WMO#=724060,0.3637431518,0.3648916594,Pass,Pass,0.5336755590,0.4997671188,Pass,Pass
 Warmup Convergence Information,FLOOR 1 PRE-OP TOILET,RunPeriod: BALTIMORE MD USA TMY2-93721 WMO#=724060,1.0692800010E-002,6.6576544517E-003,Pass,Pass,0.0000000000,0.0000000000,Pass,Pass
 Warmup Convergence Information,FLOOR 1 PROCEDURE ROOM,RunPeriod: BALTIMORE MD USA TMY2-93721 WMO#=724060,0.1249593300,0.1524290184,Pass,Pass,0.7623478333,2.3475337889,Pass,Pass
 Warmup Convergence Information,FLOOR 1 RECEPTION,RunPeriod: BALTIMORE MD USA TMY2-93721 WMO#=724060,0.1001313047,0.1392652788,Pass,Pass,0.5533223105,0.5070090618,Pass,Pass
 Warmup Convergence Information,FLOOR 1 RECEPTION HALL,RunPeriod: BALTIMORE MD USA TMY2-93721 WMO#=724060,0.1552042273,0.1517364165,Pass,Pass,0.6178997934,0.5698084880,Pass,Pass
 Warmup Convergence Information,FLOOR 1 RECOVERY ROOM,RunPeriod: BALTIMORE MD USA TMY2-93721 WMO#=724060,0.1395512689,0.1737163089,Pass,Pass,0.6831617967,1.7781786489,Pass,Pass
 Warmup Convergence Information,FLOOR 1 SCHEDULING,RunPeriod: BALTIMORE MD USA TMY2-93721 WMO#=724060,8.1288431823E-002,0.1009381187,Pass,Pass,0.5412048495,0.5530218541,Pass,Pass
 Warmup Convergence Information,FLOOR 1 SCRUB,RunPeriod: BALTIMORE MD USA TMY2-93721 WMO#=724060,0.1563207882,0.1488686139,Pass,Pass,0.6319435643,0.5940278688,Pass,Pass
 Warmup Convergence Information,FLOOR 1 SOIL,RunPeriod: BALTIMORE MD USA TMY2-93721 WMO#=724060,0.3820781179,0.3630166767,Pass,Pass,0.5248782828,0.5137138533,Pass,Pass
 Warmup Convergence Information,FLOOR 1 SOIL HOLD,RunPeriod: BALTIMORE MD USA TMY2-93721 WMO#=724060,0.3632471093,0.3498198737,Pass,Pass,0.5211813464,0.5245421020,Pass,Pass
 Warmup Convergence Information,FLOOR 1 SOIL WORK,RunPeriod: BALTIMORE MD USA TMY2-93721 WMO#=724060,0.3895153381,0.3683949705,Pass,Pass,0.5283755072,0.5129160716,Pass,Pass
 Warmup Convergence Information,FLOOR 1 STEP DOWN,RunPeriod: BALTIMORE MD USA TMY2-93721 WMO#=724060,0.2472425511,0.3175201693,Pass,Pass,0.6211183732,0.9604547371,Pass,Pass
 Warmup Convergence Information,FLOOR 1 STERILE HALL,RunPeriod: BALTIMORE MD USA TMY2-93721 WMO#=724060,8.5273557552E-002,9.3718274475E-002,Pass,Pass,0.5716415037,0.5116886444,Pass,Pass
 Warmup Convergence Information,FLOOR 1 STERILE STORAGE,RunPeriod: BALTIMORE MD USA TMY2-93721 WMO#=724060,0.1174934577,0.1044732179,Pass,Pass,0.5724712058,0.5102786361,Pass,Pass
 Warmup Convergence Information,FLOOR 1 STORAGE,RunPeriod: BALTIMORE MD USA TMY2-93721 WMO#=724060,1.9166200728E-002,1.2662142141E-002,Pass,Pass,0.0000000000,0.0000000000,Pass,Pass
 Warmup Convergence Information,FLOOR 1 SUB-STERILE,RunPeriod: BALTIMORE MD USA TMY2-93721 WMO#=724060,0.2927794853,0.3125098842,Pass,Pass,0.5169346460,0.4799317138,Pass,Pass
 Warmup Convergence Information,FLOOR 1 UTILITY HALL,RunPeriod: BALTIMORE MD USA TMY2-93721 WMO#=724060,0.5544511922,0.5712233506,Pass,Pass,0.5492240189,0.4921717936,Pass,Pass
 Warmup Convergence Information,FLOOR 1 UTILITY JANITOR,RunPeriod: BALTIMORE MD USA TMY2-93721 WMO#=724060,7.3769194649E-004,9.6271810390E-004,Pass,Pass,0.0000000000,0.0000000000,Pass,Pass
 Warmup Convergence Information,FLOOR 1 UTILITY ROOM,RunPeriod: BALTIMORE MD USA TMY2-93721 WMO#=724060,1.4202520069E-002,1.1410721498E-002,Pass,Pass,0.0000000000,0.0000000000,Pass,Pass
 Warmup Convergence Information,FLOOR 1 VESTIBULE,RunPeriod: BALTIMORE MD USA TMY2-93721 WMO#=724060,0.6657601435,0.6784576685,Pass,Pass,0.5273424165,0.4812041081,Pass,Pass
 Warmup Convergence Information,FLOOR 2 CONFERENCE,RunPeriod: BALTIMORE MD USA TMY2-93721 WMO#=724060,0.5682987349,0.6198586401,Pass,Pass,0.5737784337,0.5272739120,Pass,Pass
 Warmup Convergence Information,FLOOR 2 CONFERENCE TOILET,RunPeriod: BALTIMORE MD USA TMY2-93721 WMO#=724060,2.1279472955E-003,1.3679089514E-003,Fail,Fail,0.0000000000,0.0000000000,Pass,Pass
 Warmup Convergence Information,FLOOR 2 DICTATION,RunPeriod: BALTIMORE MD USA TMY2-93721 WMO#=724060,0.1929233597,0.1884395166,Pass,Pass,0.8087368375,3.0729165512,Pass,Pass
 Warmup Convergence Information,FLOOR 2 EXAM 1,RunPeriod: BALTIMORE MD USA TMY2-93721 WMO#=724060,0.5606932003,0.5958672733,Pass,Pass,0.5765876530,0.5272235643,Pass,Pass
 Warmup Convergence Information,FLOOR 2 EXAM 2,RunPeriod: BALTIMORE MD USA TMY2-93721 WMO#=724060,7.0542714893E-002,8.3788372862E-002,Pass,Pass,0.5531620954,0.6508171728,Pass,Pass
 Warmup Convergence Information,FLOOR 2 EXAM 3,RunPeriod: BALTIMORE MD USA TMY2-93721 WMO#=724060,7.7035256035E-002,9.3339929579E-002,Pass,Pass,0.5601425349,0.5956085240,Pass,Pass
 Warmup Convergence Information,FLOOR 2 EXAM 4,RunPeriod: BALTIMORE MD USA TMY2-93721 WMO#=724060,0.3936824185,0.4432034883,Pass,Pass,0.5461164563,0.5010137104,Pass,Pass
 Warmup Convergence Information,FLOOR 2 EXAM 5,RunPeriod: BALTIMORE MD USA TMY2-93721 WMO#=724060,0.5041937380,0.5328531506,Pass,Pass,0.6052412815,0.5588251021,Pass,Pass
 Warmup Convergence Information,FLOOR 2 EXAM 6,RunPeriod: BALTIMORE MD USA TMY2-93721 WMO#=724060,0.4562220558,0.4862492584,Pass,Pass,0.6041600010,0.5587317896,Pass,Pass
 Warmup Convergence Information,FLOOR 2 EXAM 7,RunPeriod: BALTIMORE MD USA TMY2-93721 WMO#=724060,6.4247497492E-002,7.5275806855E-002,Pass,Pass,0.6177205720,1.1606125036,Pass,Pass
 Warmup Convergence Information,FLOOR 2 EXAM 8,RunPeriod: BALTIMORE MD USA TMY2-93721 WMO#=724060,0.3358341155,0.3699271489,Pass,Pass,0.5943891534,0.5491045493,Pass,Pass
 Warmup Convergence Information,FLOOR 2 EXAM 9,RunPeriod: BALTIMORE MD USA TMY2-93721 WMO#=724060,6.3687883344E-002,7.5133023836E-002,Pass,Pass,0.6390150634,1.1395245076,Pass,Pass
 Warmup Convergence Information,FLOOR 2 EXAM HALL 1,RunPeriod: BALTIMORE MD USA TMY2-93721 WMO#=724060,4.6149933999E-002,6.0518248037E-002,Pass,Pass,0.6561505112,0.8842846431,Pass,Pass
 Warmup Convergence Information,FLOOR 2 EXAM HALL 2,RunPeriod: BALTIMORE MD USA TMY2-93721 WMO#=724060,4.6149933997E-002,6.0518248034E-002,Pass,Pass,0.6561505131,0.8842846595,Pass,Pass
 Warmup Convergence Information,FLOOR 2 EXAM HALL 3,RunPeriod: BALTIMORE MD USA TMY2-93721 WMO#=724060,4.6149933997E-002,6.0518248034E-002,Pass,Pass,0.6561505127,0.8842846564,Pass,Pass
 Warmup Convergence Information,FLOOR 2 EXAM HALL 4,RunPeriod: BALTIMORE MD USA TMY2-93721 WMO#=724060,3.9538732508E-002,5.2212080444E-002,Pass,Pass,0.6323455410,0.6804441535,Pass,Pass
 Warmup Convergence Information,FLOOR 2 EXAM HALL 5,RunPeriod: BALTIMORE MD USA TMY2-93721 WMO#=724060,3.9538732506E-002,5.2212080441E-002,Pass,Pass,0.6323455416,0.6804441556,Pass,Pass
 Warmup Convergence Information,FLOOR 2 EXAM HALL 6,RunPeriod: BALTIMORE MD USA TMY2-93721 WMO#=724060,3.9538726745E-002,5.2212360924E-002,Pass,Pass,0.6323459765,0.6804454461,Pass,Pass
 Warmup Convergence Information,FLOOR 2 JANITOR,RunPeriod: BALTIMORE MD USA TMY2-93721 WMO#=724060,2.2109112565E-002,1.4516611670E-002,Pass,Pass,0.0000000000,0.0000000000,Pass,Pass
 Warmup Convergence Information,FLOOR 2 LOUNGE,RunPeriod: BALTIMORE MD USA TMY2-93721 WMO#=724060,0.4352121609,0.3715815131,Pass,Pass,0.5043564416,0.5571020731,Pass,Pass
 Warmup Convergence Information,FLOOR 2 NURSE STATION 1,RunPeriod: BALTIMORE MD USA TMY2-93721 WMO#=724060,0.3321723054,0.2981854905,Pass,Pass,0.5418397490,0.8089859321,Pass,Pass
 Warmup Convergence Information,FLOOR 2 NURSE STATION 2,RunPeriod: BALTIMORE MD USA TMY2-93721 WMO#=724060,0.3353356490,0.3001737410,Pass,Pass,0.5421037831,0.7938772614,Pass,Pass
 Warmup Convergence Information,FLOOR 2 OFFICE,RunPeriod: BALTIMORE MD USA TMY2-93721 WMO#=724060,0.3328471331,0.3612550754,Pass,Pass,0.5894452848,0.5355506252,Pass,Pass
 Warmup Convergence Information,FLOOR 2 OFFICE HALL,RunPeriod: BALTIMORE MD USA TMY2-93721 WMO#=724060,1.6831038603E-002,2.0428496271E-002,Pass,Pass,0.6722771795,1.7522793028,Pass,Pass
 Warmup Convergence Information,FLOOR 2 RECEPTION,RunPeriod: BALTIMORE MD USA TMY2-93721 WMO#=724060,0.3190023026,0.3552518550,Pass,Pass,0.6133941065,0.5705472613,Pass,Pass
 Warmup Convergence Information,FLOOR 2 RECEPTION HALL,RunPeriod: BALTIMORE MD USA TMY2-93721 WMO#=724060,0.4651497250,0.4922794154,Pass,Pass,0.7001964778,0.6996849735,Pass,Pass
 Warmup Convergence Information,FLOOR 2 RECEPTION TOILET,RunPeriod: BALTIMORE MD USA TMY2-93721 WMO#=724060,2.2119882001E-003,1.4238581261E-003,Fail,Fail,0.0000000000,0.0000000000,Pass,Pass
 Warmup Convergence Information,FLOOR 2 SCHEDULING 1,RunPeriod: BALTIMORE MD USA TMY2-93721 WMO#=724060,0.2152440960,0.1931191781,Pass,Pass,0.5844393956,1.3984656550,Pass,Pass
 Warmup Convergence Information,FLOOR 2 SCHEDULING 2,RunPeriod: BALTIMORE MD USA TMY2-93721 WMO#=724060,0.2158648315,0.1933595146,Pass,Pass,0.5810737272,1.3610625792,Pass,Pass
 Warmup Convergence Information,FLOOR 2 STORAGE 1,RunPeriod: BALTIMORE MD USA TMY2-93721 WMO#=724060,1.2991881518E-003,1.0239306749E-003,Pass,Pass,0.0000000000,0.0000000000,Pass,Pass
 Warmup Convergence Information,FLOOR 2 STORAGE 2,RunPeriod: BALTIMORE MD USA TMY2-93721 WMO#=724060,1.3826929029E-003,1.1037185779E-003,Pass,Pass,0.0000000000,0.0000000000,Pass,Pass
 Warmup Convergence Information,FLOOR 2 STORAGE 3,RunPeriod: BALTIMORE MD USA TMY2-93721 WMO#=724060,1.3959472580E-003,1.1165104554E-003,Pass,Pass,0.0000000000,0.0000000000,Pass,Pass
 Warmup Convergence Information,FLOOR 2 UTILITY,RunPeriod: BALTIMORE MD USA TMY2-93721 WMO#=724060,1.5110884623E-002,1.1281037907E-002,Pass,Pass,0.0000000000,0.0000000000,Pass,Pass
 Warmup Convergence Information,FLOOR 2 WORK,RunPeriod: BALTIMORE MD USA TMY2-93721 WMO#=724060,6.9931159894E-002,9.4330874831E-002,Pass,Pass,0.5728908138,0.5605487284,Pass,Pass
 Warmup Convergence Information,FLOOR 2 WORK HALL,RunPeriod: BALTIMORE MD USA TMY2-93721 WMO#=724060,7.0263530939E-002,7.9183368129E-002,Pass,Pass,0.6355643662,0.6968166137,Pass,Pass
 Warmup Convergence Information,FLOOR 2 WORK TOILET,RunPeriod: BALTIMORE MD USA TMY2-93721 WMO#=724060,1.5407700088E-002,9.2954919545E-003,Pass,Pass,0.0000000000,0.0000000000,Pass,Pass
 Warmup Convergence Information,FLOOR 2 X-RAY,RunPeriod: BALTIMORE MD USA TMY2-93721 WMO#=724060,4.9752967944E-002,6.3375023836E-002,Pass,Pass,0.5438033428,0.4989682830,Pass,Pass
 Warmup Convergence Information,FLOOR 3 DRESSING ROOM,RunPeriod: BALTIMORE MD USA TMY2-93721 WMO#=724060,5.1338619568E-002,6.9018355957E-002,Pass,Pass,0.8141919774,2.3724014728,Pass,Pass
 Warmup Convergence Information,FLOOR 3 ELEVATOR HALL,RunPeriod: BALTIMORE MD USA TMY2-93721 WMO#=724060,0.4641785927,0.4810882783,Pass,Pass,0.6690591725,0.6423370695,Pass,Pass
 Warmup Convergence Information,FLOOR 3 HUMID,RunPeriod: BALTIMORE MD USA TMY2-93721 WMO#=724060,5.3155193751E-002,7.1448209599E-002,Pass,Pass,0.6844367578,1.4186379692,Pass,Pass
 Warmup Convergence Information,FLOOR 3 JANITOR,RunPeriod: BALTIMORE MD USA TMY2-93721 WMO#=724060,2.9104761219E-002,1.8147850862E-002,Pass,Pass,0.0000000000,0.0000000000,Pass,Pass
 Warmup Convergence Information,FLOOR 3 LOCKER,RunPeriod: BALTIMORE MD USA TMY2-93721 WMO#=724060,0.2396795480,0.2678621202,Pass,Pass,6.2497939230,68.9068335883,Pass,Pass
 Warmup Convergence Information,FLOOR 3 LOUNGE,RunPeriod: BALTIMORE MD USA TMY2-93721 WMO#=724060,0.1265794791,0.1638111109,Pass,Pass,0.6074853021,0.7118886682,Pass,Pass
 Warmup Convergence Information,FLOOR 3 LOUNGE TOILET,RunPeriod: BALTIMORE MD USA TMY2-93721 WMO#=724060,2.3457071078E-002,1.5119968038E-002,Pass,Pass,0.0000000000,0.0000000000,Pass,Pass
 Warmup Convergence Information,FLOOR 3 MECHANICAL,RunPeriod: BALTIMORE MD USA TMY2-93721 WMO#=724060,2.9842143340E-002,1.6999285677E-002,Pass,Pass,0.0000000000,0.0000000000,Pass,Pass
 Warmup Convergence Information,FLOOR 3 MECHANICAL HALL,RunPeriod: BALTIMORE MD USA TMY2-93721 WMO#=724060,0.2506081749,0.2628348914,Pass,Pass,0.6732379471,0.6554080864,Pass,Pass
 Warmup Convergence Information,FLOOR 3 OFFICE,RunPeriod: BALTIMORE MD USA TMY2-93721 WMO#=724060,0.2685341930,0.2957834661,Pass,Pass,0.5711551610,0.5111074141,Pass,Pass
 Warmup Convergence Information,FLOOR 3 OFFICE HALL,RunPeriod: BALTIMORE MD USA TMY2-93721 WMO#=724060,0.1806989535,0.1919915950,Pass,Pass,0.6336379045,0.5942985206,Pass,Pass
 Warmup Convergence Information,FLOOR 3 OFFICE TOILET,RunPeriod: BALTIMORE MD USA TMY2-93721 WMO#=724060,2.1663397353E-002,1.3121158326E-002,Pass,Pass,0.0000000000,0.0000000000,Pass,Pass
 Warmup Convergence Information,FLOOR 3 PHYSICAL THERAPY 1,RunPeriod: BALTIMORE MD USA TMY2-93721 WMO#=724060,0.4800094230,0.5392397182,Pass,Pass,0.6119191891,0.5629294566,Pass,Pass
 Warmup Convergence Information,FLOOR 3 PHYSICAL THERAPY 2,RunPeriod: BALTIMORE MD USA TMY2-93721 WMO#=724060,6.4644604768E-002,8.6906249847E-002,Pass,Pass,0.5261774479,0.5312009062,Pass,Pass
 Warmup Convergence Information,FLOOR 3 PHYSICAL THERAPY TOILET,RunPeriod: BALTIMORE MD USA TMY2-93721 WMO#=724060,6.3221422309E-003,4.2625997378E-003,Pass,Pass,0.0000000000,0.0000000000,Pass,Pass
 Warmup Convergence Information,FLOOR 3 STORAGE 1,RunPeriod: BALTIMORE MD USA TMY2-93721 WMO#=724060,6.1251373074E-003,3.9533792356E-003,Pass,Pass,0.0000000000,0.0000000000,Pass,Pass
 Warmup Convergence Information,FLOOR 3 STORAGE 2,RunPeriod: BALTIMORE MD USA TMY2-93721 WMO#=724060,6.0905741837E-003,3.9228861416E-003,Pass,Pass,0.0000000000,0.0000000000,Pass,Pass
 Warmup Convergence Information,FLOOR 3 TREATMENT,RunPeriod: BALTIMORE MD USA TMY2-93721 WMO#=724060,5.2545538117E-002,7.3672076953E-002,Pass,Pass,0.5995248120,0.6914912531,Pass,Pass
 Warmup Convergence Information,FLOOR 3 UNDEVELOPED 1,RunPeriod: BALTIMORE MD USA TMY2-93721 WMO#=724060,1.7940773569E-002,1.2835639932E-002,Pass,Pass,0.0000000000,0.0000000000,Pass,Pass
 Warmup Convergence Information,FLOOR 3 UNDEVELOPED 2,RunPeriod: BALTIMORE MD USA TMY2-93721 WMO#=724060,2.1812462392E-002,1.4723155480E-002,Pass,Pass,0.0000000000,0.0000000000,Pass,Pass
 Warmup Convergence Information,FLOOR 3 UTILITY,RunPeriod: BALTIMORE MD USA TMY2-93721 WMO#=724060,6.9084086760E-003,4.7023451437E-003,Pass,Pass,0.0000000000,0.0000000000,Pass,Pass
 Warmup Convergence Information,FLOOR 3 WORK,RunPeriod: BALTIMORE MD USA TMY2-93721 WMO#=724060,0.5133134123,0.5476968852,Pass,Pass,0.6070886365,0.5525917042,Pass,Pass
 Warmup Convergence Information,NE STAIR,RunPeriod: BALTIMORE MD USA TMY2-93721 WMO#=724060,4.2458535981E-002,3.3131163132E-002,Pass,Pass,0.0000000000,0.0000000000,Pass,Pass
 Warmup Convergence Information,NW ELEVATOR,RunPeriod: BALTIMORE MD USA TMY2-93721 WMO#=724060,2.9993974337E-002,1.9786196548E-002,Pass,Pass,0.0000000000,0.0000000000,Pass,Pass
 Warmup Convergence Information,NW STAIR,RunPeriod: BALTIMORE MD USA TMY2-93721 WMO#=724060,3.9779200388E-002,3.0652346023E-002,Pass,Pass,0.0000000000,0.0000000000,Pass,Pass
 Warmup Convergence Information,SW STAIR,RunPeriod: BALTIMORE MD USA TMY2-93721 WMO#=724060,3.5618387034E-002,2.5964256460E-002,Pass,Pass,0.0000000000,0.0000000000,Pass,Pass
! <Program Control Information:Threads/Parallel Sims>, Threading Supported,Maximum Number of Threads, Env Set Threads (OMP_NUM_THREADS), EP Env Set Threads (EP_OMP_NUM_THREADS), IDF Set Threads, Number of Threads Used (Interior Radiant Exchange), Number Nominal Surfaces, Number Parallel Sims
Program Control:Threads/Parallel Sims, No,1, N/A, N/A, N/A, N/A, N/A, N/A
End of Data
