Program Version,EnergyPlus, Version 8.8.0-7c3bbe4830, YMD=2018.08.20 16:36
! <Version>, Version ID
 Version, 8.8
! <Timesteps per Hour>, #TimeSteps, Minutes per TimeStep {minutes}
 Timesteps per Hour,  4, 15
! <System Convergence Limits>, Minimum System TimeStep {minutes}, Max HVAC Iterations, Minimum Plant Iterations, Maximum Plant Iterations
 System Convergence Limits, 2, 25, 2, 8
! <Simulation Control>, Do Zone Sizing, Do System Sizing, Do Plant Sizing, Do Design Days, Do Weather Simulation, Do HVAC Sizing Simulation
 Simulation Control, Yes, Yes, Yes, No, Yes, No
! <Output Reporting Tolerances>, Tolerance for Time Heating Setpoint Not Met, Tolerance for Zone Cooling Setpoint Not Met Time
 Output Reporting Tolerances, 0.556, 0.556, 
! <Site:GroundTemperature:BuildingSurface>,Jan{C},Feb{C},Mar{C},Apr{C},May{C},Jun{C},Jul{C},Aug{C},Sep{C},Oct{C},Nov{C},Dec{C}
 Site:GroundTemperature:BuildingSurface,  19.71,  19.66,  19.71,  19.75,  20.49,  22.11,  22.46,  22.55,  22.17,  20.61,  20.05,  19.80
! <Site:GroundTemperature:FCfactorMethod>,Jan{C},Feb{C},Mar{C},Apr{C},May{C},Jun{C},Jul{C},Aug{C},Sep{C},Oct{C},Nov{C},Dec{C}
 Site:GroundTemperature:FCfactorMethod,   2.18,   1.16,   2.97,   5.81,  13.21,  18.93,  22.79,  23.96,  21.96,  17.52,  11.59,   6.09
! <Site:GroundTemperature:Shallow>,Jan{C},Feb{C},Mar{C},Apr{C},May{C},Jun{C},Jul{C},Aug{C},Sep{C},Oct{C},Nov{C},Dec{C}
 Site:GroundTemperature:Shallow,  13.00,  13.00,  13.00,  13.00,  13.00,  13.00,  13.00,  13.00,  13.00,  13.00,  13.00,  13.00
! <Site:GroundTemperature:Deep>,Jan{C},Feb{C},Mar{C},Apr{C},May{C},Jun{C},Jul{C},Aug{C},Sep{C},Oct{C},Nov{C},Dec{C}
 Site:GroundTemperature:Deep,  16.00,  16.00,  16.00,  16.00,  16.00,  16.00,  16.00,  16.00,  16.00,  16.00,  16.00,  16.00
! <Site:GroundReflectance>,Jan{dimensionless},Feb{dimensionless},Mar{dimensionless},Apr{dimensionless},May{dimensionless},Jun{dimensionless},Jul{dimensionless},Aug{dimensionless},Sep{dimensionless},Oct{dimensionless},Nov{dimensionless},Dec{dimensionless}
 Site:GroundReflectance,  0.20,  0.20,  0.20,  0.20,  0.20,  0.20,  0.20,  0.20,  0.20,  0.20,  0.20,  0.20
! <Site:GroundReflectance:SnowModifier>, Normal, Daylighting {dimensionless}
 Site:GroundReflectance:SnowModifier,   1.000,   1.000
! <Site:GroundReflectance:Snow>,Jan{dimensionless},Feb{dimensionless},Mar{dimensionless},Apr{dimensionless},May{dimensionless},Jun{dimensionless},Jul{dimensionless},Aug{dimensionless},Sep{dimensionless},Oct{dimensionless},Nov{dimensionless},Dec{dimensionless}
 Site:GroundReflectance:Snow,  0.20,  0.20,  0.20,  0.20,  0.20,  0.20,  0.20,  0.20,  0.20,  0.20,  0.20,  0.20
! <Site:GroundReflectance:Snow:Daylighting>,Jan{dimensionless},Feb{dimensionless},Mar{dimensionless},Apr{dimensionless},May{dimensionless},Jun{dimensionless},Jul{dimensionless},Aug{dimensionless},Sep{dimensionless},Oct{dimensionless},Nov{dimensionless},Dec{dimensionless}
 Site:GroundReflectance:Snow:Daylighting,  0.20,  0.20,  0.20,  0.20,  0.20,  0.20,  0.20,  0.20,  0.20,  0.20,  0.20,  0.20
! <Environment:Weather Station>,Wind Sensor Height Above Ground {m},Wind Speed Profile Exponent {},Wind Speed Profile Boundary Layer Thickness {m},Air Temperature Sensor Height Above Ground {m},Wind Speed Modifier Coefficient-Internal,Temperature Modifier Coefficient-Internal
Environment:Weather Station,10.000,0.140,270.000,1.500,1.586,9.750E-003
! <Site:Location>, Location Name, Latitude {N+/S- Deg}, Longitude {E+/W- Deg},  Time Zone Number {GMT+/-}, Elevation {m},  Standard Pressure at Elevation {Pa}, Standard RhoAir at Elevation
Site:Location,BALTIMORE MD USA TMY2-93721 WMO#=724060,39.18,-76.67,-5.00,47.00,100762,1.1976
! <Building Information>, Building Name,North Axis {deg},Terrain,  Loads Convergence Tolerance Value,Temperature Convergence Tolerance Value,  Solar Distribution,Maximum Number of Warmup Days,Minimum Number of Warmup Days
 Building Information,Ref Bldg Hospital New2004_v1.3_5.0,0.000,City,4.00000E-002,0.20000,FullInteriorAndExterior,25,6
! <Inside Convection Algorithm>, Algorithm {Simple | TARP | CeilingDiffuser | AdaptiveConvectionAlgorithm}
Inside Convection Algorithm,TARP
! <Outside Convection Algorithm>, Algorithm {SimpleCombined | TARP | MoWitt | DOE-2 | AdaptiveConvectionAlgorithm}
Outside Convection Algorithm,DOE-2
! <Sky Radiance Distribution>, Value {Anisotropic}
Sky Radiance Distribution,Anisotropic
! <Zone Air Solution Algorithm>, Value {ThirdOrderBackwardDifference | AnalyticalSolution | EulerMethod}
 Zone Air Solution Algorithm, AnalyticalSolution
! <Zone Air Carbon Dioxide Balance Simulation>, Simulation {Yes/No}, Carbon Dioxide Concentration
 Zone Air Carbon Dioxide Balance Simulation, No,N/A
! <Zone Air Generic Contaminant Balance Simulation>, Simulation {Yes/No}, Generic Contaminant Concentration
 Zone Air Generic Contaminant Balance Simulation, No,N/A
! <Zone Air Mass Flow Balance Simulation>, Enforce Mass Balance, Adjust Zone Mixing, Adjust Zone Infiltration {AddInfiltration | AdjustInfiltration | None}, Infiltration Zones {MixingSourceZonesOnly | AllZones}
 Zone Air Mass Flow Balance Simulation, No,N/A,N/A,N/A
! <HVACSystemRootFindingAlgorithm>, Value {RegulaFalsi | Bisection | BisectionThenRegulaFalsi | RegulaFalsiThenBisection}
 HVACSystemRootFindingAlgorithm, RegulaFalsi
! <Environment:Site Atmospheric Variation>,Wind Speed Profile Exponent {},Wind Speed Profile Boundary Layer Thickness {m},Air Temperature Gradient Coefficient {K/m}
Environment:Site Atmospheric Variation,0.330,460.000,6.500000E-003
! <Surface Geometry>,Starting Corner,Vertex Input Direction,Coordinate System,Daylight Reference Point Coordinate System,Rectangular (Simple) Surface Coordinate System
 Surface Geometry,UpperLeftCorner,Counterclockwise,RelativeCoordinateSystem,RelativeCoordinateSystem,RelativeToZoneOrigin
! <Surface Heat Transfer Algorithm>, Value {CTF - ConductionTransferFunction | EMPD - MoisturePenetrationDepthConductionTransferFunction | CondFD - ConductionFiniteDifference | HAMT - CombinedHeatAndMoistureFiniteElement} - Description,Inside Surface Max Temperature Limit{C}, Surface Convection Coefficient Lower Limit {W/m2-K}, Surface Convection Coefficient Upper Limit {W/m2-K}
Surface Heat Transfer Algorithm, CTF - ConductionTransferFunction,200,0.10,1000.0
! <Shading Summary>, Number of Fixed Detached Shades, Number of Building Detached Shades, Number of Attached Shades
 Shading Summary,0,2,0
! <Zone Summary>, Number of Zones, Number of Zone Surfaces, Number of SubSurfaces
 Zone Summary,55,497,40
! <Zone Information>,Zone Name,North Axis {deg},Origin X-Coordinate {m},Origin Y-Coordinate {m},Origin Z-Coordinate {m},Centroid X-Coordinate {m},Centroid Y-Coordinate {m},Centroid Z-Coordinate {m},Type,Zone Multiplier,Zone List Multiplier,Minimum X {m},Maximum X {m},Minimum Y {m},Maximum Y {m},Minimum Z {m},Maximum Z {m},Ceiling Height {m},Volume {m3},Zone Inside Convection Algorithm {Simple-Detailed-CeilingDiffuser-TrombeWall},Zone Outside Convection Algorithm {Simple-Detailed-Tarp-MoWitt-DOE-2-BLAST}, Floor Area {m2},Exterior Gross Wall Area {m2},Exterior Net Wall Area {m2},Exterior Window Area {m2}, Number of Surfaces, Number of SubSurfaces, Number of Shading SubSurfaces,  Part of Total Building Area
 Zone Information, BASEMENT,0.0,0.00,0.00,0.00,35.05,26.67,-1.22,1,1,1,0.00,70.10,0.00,53.34,-2.44,0.00,2.44,9120.27,TARP,DOE-2,3739.35,0.00,0.00,0.00,6,0,0,Yes
 Zone Information, CORRIDOR_FLR_1,0.0,0.00,0.00,0.00,34.29,26.67,2.13,1,1,1,28.96,39.62,0.00,53.34,0.00,4.27,4.27,2428.80,TARP,DOE-2,569.03,91.07,91.07,0.00,7,0,0,Yes
 Zone Information, CORRIDOR_FLR_2,0.0,0.00,0.00,0.00,34.29,26.67,6.40,1,1,1,28.96,39.62,0.00,53.34,4.27,8.54,4.27,2428.80,TARP,DOE-2,569.03,91.07,91.07,0.00,6,0,0,Yes
 Zone Information, CORRIDOR_FLR_5,0.0,0.00,0.00,0.00,21.12,34.61,19.21,1,1,1,9.14,39.62,0.00,53.34,17.07,21.34,4.27,2141.31,TARP,DOE-2,501.68,78.06,78.06,0.00,10,0,0,Yes
 Zone Information, CORRIDOR_NW_FLR_3,0.0,0.00,0.00,0.00,28.14,40.30,10.67,1,1,1,4.57,65.53,10.67,53.34,8.54,12.80,4.27,2418.88,TARP,DOE-2,566.71,45.53,45.53,0.00,15,0,0,Yes
 Zone Information, CORRIDOR_NW_FLR_4,0.0,0.00,0.00,0.00,28.14,40.30,14.94,1,1,1,4.57,65.53,10.67,53.34,12.80,17.07,4.27,2418.88,TARP,DOE-2,566.71,45.53,45.53,0.00,15,0,0,Yes
 Zone Information, CORRIDOR_SE_FLR_3,0.0,0.00,0.00,0.00,41.59,13.04,10.67,1,1,1,4.57,65.53,0.00,42.67,8.54,12.80,4.27,2418.88,TARP,DOE-2,566.71,45.53,45.53,0.00,15,0,0,Yes
 Zone Information, CORRIDOR_SE_FLR_4,0.0,0.00,0.00,0.00,41.59,13.04,14.94,1,1,1,4.57,65.53,0.00,42.67,12.80,17.07,4.27,2418.88,TARP,DOE-2,566.71,45.53,45.53,0.00,15,0,0,Yes
 Zone Information, DINING_FLR_5,0.0,0.00,0.00,0.00,54.86,11.43,19.21,1,1,1,39.62,70.10,0.00,22.86,17.07,21.34,4.27,2974.04,TARP,DOE-2,696.77,227.67,191.91,35.76,6,1,0,Yes
 Zone Information, ER_EXAM1_MULT4_FLR_1,0.0,0.00,0.00,0.00,42.67,2.29,2.13,1,4,1,39.62,45.72,0.00,4.57,0.00,4.27,4.27,118.96,TARP,DOE-2,27.87,26.02,26.02,0.00,6,0,0,Yes
 Zone Information, ER_EXAM3_MULT4_FLR_1,0.0,0.00,0.00,0.00,67.06,6.86,2.13,1,4,1,64.01,70.10,4.57,9.14,0.00,4.27,4.27,118.96,TARP,DOE-2,27.87,19.51,19.51,0.00,6,0,0,Yes
 Zone Information, ER_NURSESTN_LOBBY_FLR_1,0.0,0.00,0.00,0.00,58.35,26.67,2.13,1,1,1,39.62,70.10,4.57,48.77,0.00,4.27,4.27,5273.96,TARP,DOE-2,1235.61,110.58,80.16,30.42,10,1,0,Yes
 Zone Information, ER_TRAUMA1_FLR_1,0.0,0.00,0.00,0.00,67.06,2.29,2.13,1,1,1,64.01,70.10,0.00,4.57,0.00,4.27,4.27,118.96,TARP,DOE-2,27.87,45.53,45.53,0.00,6,0,0,Yes
 Zone Information, ER_TRAUMA2_FLR_1,0.0,0.00,0.00,0.00,67.06,51.05,2.13,1,1,1,64.01,70.10,48.77,53.34,0.00,4.27,4.27,118.96,TARP,DOE-2,27.87,45.53,45.53,0.00,6,0,0,Yes
 Zone Information, ER_TRIAGE_MULT4_FLR_1,0.0,0.00,0.00,0.00,42.67,51.05,2.13,1,4,1,39.62,45.72,48.77,53.34,0.00,4.27,4.27,118.96,TARP,DOE-2,27.87,26.02,26.02,0.00,6,0,0,Yes
 Zone Information, ICU_FLR_2,0.0,0.00,0.00,0.00,14.48,10.67,6.40,1,1,1,0.00,28.96,0.00,21.34,4.27,8.54,4.27,2637.66,TARP,DOE-2,617.96,214.68,189.65,25.03,6,1,0,Yes
 Zone Information, ICU_NURSESTN_LOBBY_FLR_2,0.0,0.00,0.00,0.00,16.76,35.05,6.40,1,1,1,4.57,28.96,21.34,48.77,4.27,8.54,4.27,2854.50,TARP,DOE-2,668.77,0.00,0.00,0.00,6,0,0,Yes
 Zone Information, IC_PATROOM1_MULT5_FLR_2,0.0,0.00,0.00,0.00,26.67,51.05,6.40,1,5,1,24.38,28.96,48.77,53.34,4.27,8.54,4.27,89.22,TARP,DOE-2,20.90,19.51,14.61,4.91,6,1,0,Yes
 Zone Information, IC_PATROOM2_FLR_2,0.0,0.00,0.00,0.00,3.05,51.05,6.40,1,1,1,0.00,6.10,48.77,53.34,4.27,8.54,4.27,118.96,TARP,DOE-2,27.87,45.53,34.09,11.44,6,2,0,Yes
 Zone Information, IC_PATROOM3_MULT6_FLR_2,0.0,0.00,0.00,0.00,2.29,46.48,6.40,1,6,1,0.00,4.57,44.20,48.77,4.27,8.54,4.27,89.22,TARP,DOE-2,20.90,19.51,14.61,4.91,6,1,0,Yes
 Zone Information, KITCHEN_FLR_5,0.0,0.00,0.00,0.00,54.86,38.10,19.21,1,1,1,39.62,70.10,22.86,53.34,17.07,21.34,4.27,3965.38,TARP,DOE-2,929.03,260.20,260.20,0.00,7,0,0,Yes
 Zone Information, LAB_FLR_3,0.0,0.00,0.00,0.00,17.40,20.75,10.67,1,1,1,9.14,28.96,10.67,33.58,8.54,12.80,4.27,1130.13,TARP,DOE-2,264.77,0.00,0.00,0.00,8,0,0,Yes
 Zone Information, LAB_FLR_4,0.0,0.00,0.00,0.00,17.40,20.75,14.94,1,1,1,9.14,28.96,10.67,33.58,12.80,17.07,4.27,1130.13,TARP,DOE-2,264.77,0.00,0.00,0.00,8,0,0,Yes
 Zone Information, LOBBY_RECORDS_FLR_1,0.0,0.00,0.00,0.00,14.17,16.75,2.13,1,1,1,0.00,28.96,0.00,53.34,0.00,4.27,4.27,6294.93,TARP,DOE-2,1474.81,409.78,347.15,62.63,11,1,0,Yes
 Zone Information, NURSESTN_LOBBY_FLR_3,0.0,0.00,0.00,0.00,31.62,25.31,10.67,1,1,1,9.14,60.96,10.67,42.67,8.54,12.80,4.27,3866.25,TARP,DOE-2,905.80,0.00,0.00,0.00,12,0,0,Yes
 Zone Information, NURSESTN_LOBBY_FLR_4,0.0,0.00,0.00,0.00,31.62,25.31,14.94,1,1,1,9.14,60.96,10.67,42.67,12.80,17.07,4.27,3866.25,TARP,DOE-2,905.80,0.00,0.00,0.00,12,0,0,Yes
 Zone Information, NURSESTN_LOBBY_FLR_5,0.0,0.00,0.00,0.00,27.43,21.34,19.21,1,1,1,15.24,39.62,0.00,42.67,17.07,21.34,4.27,4441.23,TARP,DOE-2,1040.51,104.08,104.08,0.00,7,0,0,Yes
 Zone Information, OR1_FLR_2,0.0,0.00,0.00,0.00,65.53,50.29,6.40,1,1,1,60.96,70.10,47.24,53.34,4.27,8.54,4.27,237.92,TARP,DOE-2,55.74,65.05,65.05,0.00,6,0,0,Yes
 Zone Information, OR2_MULT5_FLR_2,0.0,0.00,0.00,0.00,65.53,44.20,6.40,1,5,1,60.96,70.10,41.15,47.24,4.27,8.54,4.27,237.92,TARP,DOE-2,55.74,26.02,26.02,0.00,6,0,0,Yes
 Zone Information, OR3_FLR_2,0.0,0.00,0.00,0.00,44.20,50.29,6.40,1,1,1,39.62,48.77,47.24,53.34,4.27,8.54,4.27,237.92,TARP,DOE-2,55.74,39.03,39.03,0.00,6,0,0,Yes
 Zone Information, OR4_FLR_2,0.0,0.00,0.00,0.00,44.20,35.05,6.40,1,1,1,39.62,48.77,22.86,47.24,4.27,8.54,4.27,951.69,TARP,DOE-2,222.97,0.00,0.00,0.00,6,0,0,Yes
 Zone Information, OR_NURSESTN_LOBBY_FLR_2,0.0,0.00,0.00,0.00,54.78,23.18,6.40,1,1,1,39.62,70.10,0.00,53.34,4.27,8.54,4.27,4322.26,TARP,DOE-2,1012.64,182.14,146.37,35.76,10,1,0,Yes
 Zone Information, OFFICE1_FLR_5,0.0,0.00,0.00,0.00,4.57,3.81,19.21,1,1,1,0.00,9.14,0.00,7.62,17.07,21.34,4.27,297.48,TARP,DOE-2,69.70,71.56,53.58,17.98,6,2,0,Yes
 Zone Information, OFFICE1_MULT4_FLR_1,0.0,0.00,0.00,0.00,7.62,2.29,2.13,1,4,1,6.10,9.14,0.00,4.57,0.00,4.27,4.27,59.48,TARP,DOE-2,13.94,13.01,10.05,2.96,6,1,0,Yes
 Zone Information, OFFICE2_MULT5_FLR_5,0.0,0.00,0.00,0.00,4.57,11.43,19.21,1,5,1,0.00,9.14,7.62,15.24,17.07,21.34,4.27,297.35,TARP,DOE-2,69.68,32.52,24.34,8.17,6,1,0,Yes
 Zone Information, OFFICE3_FLR_5,0.0,0.00,0.00,0.00,4.57,49.53,19.21,1,1,1,0.00,9.14,45.72,53.34,17.07,21.34,4.27,297.40,TARP,DOE-2,69.68,71.55,53.57,17.98,6,2,0,Yes
 Zone Information, OFFICE4_MULT6_FLR_5,0.0,0.00,0.00,0.00,10.67,51.05,19.21,1,6,1,9.14,12.19,48.77,53.34,17.07,21.34,4.27,59.48,TARP,DOE-2,13.94,13.01,10.05,2.96,6,1,0,Yes
 Zone Information, PATROOM1_MULT10_FLR_3,0.0,0.00,0.00,0.00,41.91,2.29,10.67,1,10,1,39.62,44.20,0.00,4.57,8.54,12.80,4.27,89.22,TARP,DOE-2,20.90,19.51,14.61,4.91,6,1,0,Yes
 Zone Information, PATROOM1_MULT10_FLR_4,0.0,0.00,0.00,0.00,41.91,2.29,14.94,1,10,1,39.62,44.20,0.00,4.57,12.80,17.07,4.27,89.22,TARP,DOE-2,20.90,19.51,14.61,4.91,6,1,0,Yes
 Zone Information, PATROOM2_FLR_3,0.0,0.00,0.00,0.00,66.29,2.29,10.67,1,1,1,62.48,70.10,0.00,4.57,8.54,12.80,4.27,148.70,TARP,DOE-2,34.84,52.04,38.96,13.08,6,2,0,Yes
 Zone Information, PATROOM2_FLR_4,0.0,0.00,0.00,0.00,66.29,2.29,14.94,1,1,1,62.48,70.10,0.00,4.57,12.80,17.07,4.27,148.70,TARP,DOE-2,34.84,52.04,38.96,13.08,6,2,0,Yes
 Zone Information, PATROOM3_MULT10_FLR_3,0.0,0.00,0.00,0.00,67.82,6.78,10.67,1,10,1,65.53,70.10,4.57,8.99,8.54,12.80,4.27,86.25,TARP,DOE-2,20.21,18.87,14.13,4.74,6,1,0,Yes
 Zone Information, PATROOM3_MULT10_FLR_4,0.0,0.00,0.00,0.00,67.82,6.78,14.94,1,10,1,65.53,70.10,4.57,8.99,12.80,17.07,4.27,86.25,TARP,DOE-2,20.21,18.87,14.13,4.74,6,1,0,Yes
 Zone Information, PATROOM4_FLR_3,0.0,0.00,0.00,0.00,66.29,51.05,10.67,1,1,1,62.48,70.10,48.77,53.34,8.54,12.80,4.27,148.70,TARP,DOE-2,34.84,52.04,38.96,13.08,6,2,0,Yes
 Zone Information, PATROOM4_FLR_4,0.0,0.00,0.00,0.00,66.29,51.05,14.94,1,1,1,62.48,70.10,48.77,53.34,12.80,17.07,4.27,148.70,TARP,DOE-2,34.84,52.04,38.96,13.08,6,2,0,Yes
 Zone Information, PATROOM5_MULT10_FLR_3,0.0,0.00,0.00,0.00,41.91,51.05,10.67,1,10,1,39.62,44.20,48.77,53.34,8.54,12.80,4.27,89.22,TARP,DOE-2,20.90,19.51,14.61,4.91,6,1,0,Yes
 Zone Information, PATROOM5_MULT10_FLR_4,0.0,0.00,0.00,0.00,41.91,51.05,14.94,1,10,1,39.62,44.20,48.77,53.34,12.80,17.07,4.27,89.22,TARP,DOE-2,20.90,19.51,14.61,4.91,6,1,0,Yes
 Zone Information, PATROOM6_FLR_3,0.0,0.00,0.00,0.00,3.05,2.29,10.67,1,1,1,0.00,6.10,0.00,4.57,8.54,12.80,4.27,118.96,TARP,DOE-2,27.87,45.53,34.09,11.44,6,2,0,Yes
 Zone Information, PATROOM6_FLR_4,0.0,0.00,0.00,0.00,3.05,2.29,14.94,1,1,1,0.00,6.10,0.00,4.57,12.80,17.07,4.27,118.96,TARP,DOE-2,27.87,45.53,34.09,11.44,6,2,0,Yes
 Zone Information, PATROOM7_MULT10_FLR_3,0.0,0.00,0.00,0.00,2.29,6.78,10.67,1,10,1,0.00,4.57,4.57,8.99,8.54,12.80,4.27,86.25,TARP,DOE-2,20.21,18.87,14.13,4.74,6,1,0,Yes
 Zone Information, PATROOM7_MULT10_FLR_4,0.0,0.00,0.00,0.00,2.29,6.78,14.94,1,10,1,0.00,4.57,4.57,8.99,12.80,17.07,4.27,86.25,TARP,DOE-2,20.21,18.87,14.13,4.74,6,1,0,Yes
 Zone Information, PATROOM8_FLR_3,0.0,0.00,0.00,0.00,3.05,51.05,10.67,1,1,1,0.00,6.10,48.77,53.34,8.54,12.80,4.27,118.96,TARP,DOE-2,27.87,45.53,34.09,11.44,6,2,0,Yes
 Zone Information, PATROOM8_FLR_4,0.0,0.00,0.00,0.00,3.05,51.05,14.94,1,1,1,0.00,6.10,48.77,53.34,12.80,17.07,4.27,118.96,TARP,DOE-2,27.87,45.53,34.09,11.44,6,2,0,Yes
 Zone Information, PHYSTHERAPY_FLR_3,0.0,0.00,0.00,0.00,50.29,31.24,10.67,1,1,1,39.62,60.96,19.81,42.67,8.54,12.80,4.27,2081.82,TARP,DOE-2,487.74,0.00,0.00,0.00,6,0,0,Yes
 Zone Information, RADIOLOGY_FLR_4,0.0,0.00,0.00,0.00,50.29,31.24,14.94,1,1,1,39.62,60.96,19.81,42.67,12.80,17.07,4.27,2081.82,TARP,DOE-2,487.74,0.00,0.00,0.00,6,0,0,Yes
! <Zone Internal Gains Nominal>,Zone Name, Floor Area {m2},# Occupants,Area per Occupant {m2/person},Occupant per Area {person/m2},Interior Lighting {W/m2},Electric Load {W/m2},Gas Load {W/m2},Other Load {W/m2},Hot Water Eq {W/m2},Steam Equipment {W/m2},Sum Loads per Area {W/m2},Outdoor Controlled Baseboard Heat
 Zone Internal Gains Nominal, BASEMENT,3739.35,100.6,37.175,2.690E-002,11.840,8.070,0.000,0.000,0.000,0.000,19.910,No
 Zone Internal Gains Nominal, CORRIDOR_FLR_1,569.03,6.1,92.593,1.080E-002,10.760,0.000,0.000,0.000,0.000,0.000,10.760,No
 Zone Internal Gains Nominal, CORRIDOR_FLR_2,569.03,6.1,92.593,1.080E-002,10.760,0.000,0.000,0.000,0.000,0.000,10.760,No
 Zone Internal Gains Nominal, CORRIDOR_FLR_5,501.68,5.4,92.593,1.080E-002,10.760,0.000,0.000,0.000,0.000,0.000,10.760,No
 Zone Internal Gains Nominal, CORRIDOR_NW_FLR_3,566.71,6.1,92.593,1.080E-002,10.760,0.000,0.000,0.000,0.000,0.000,10.760,No
 Zone Internal Gains Nominal, CORRIDOR_NW_FLR_4,566.71,6.1,92.593,1.080E-002,10.760,0.000,0.000,0.000,0.000,0.000,10.760,No
 Zone Internal Gains Nominal, CORRIDOR_SE_FLR_3,566.71,6.1,92.593,1.080E-002,10.760,0.000,0.000,0.000,0.000,0.000,10.760,No
 Zone Internal Gains Nominal, CORRIDOR_SE_FLR_4,566.71,6.1,92.593,1.080E-002,10.760,0.000,0.000,0.000,0.000,0.000,10.760,No
 Zone Internal Gains Nominal, DINING_FLR_5,696.77,75.0,9.294,0.108,9.680,10.760,0.000,0.000,0.000,0.000,20.440,No
 Zone Internal Gains Nominal, ER_EXAM1_MULT4_FLR_1,27.87,6.0,4.651,0.215,29.050,16.040,0.000,0.000,0.000,0.000,45.090,No
 Zone Internal Gains Nominal, ER_EXAM3_MULT4_FLR_1,27.87,6.0,4.651,0.215,29.050,16.040,0.000,0.000,0.000,0.000,45.090,No
 Zone Internal Gains Nominal, ER_NURSESTN_LOBBY_FLR_1,1235.61,17.7,69.930,1.430E-002,12.050,14.630,0.000,0.000,0.000,0.000,26.680,No
 Zone Internal Gains Nominal, ER_TRAUMA1_FLR_1,27.87,6.0,4.651,0.215,29.050,43.040,0.000,0.000,0.000,0.000,72.090,No
 Zone Internal Gains Nominal, ER_TRAUMA2_FLR_1,27.87,6.0,4.651,0.215,29.050,43.040,0.000,0.000,0.000,0.000,72.090,No
 Zone Internal Gains Nominal, ER_TRIAGE_MULT4_FLR_1,27.87,6.0,4.651,0.215,29.050,29.050,0.000,0.000,0.000,0.000,58.100,No
 Zone Internal Gains Nominal, ICU_FLR_2,617.96,33.2,18.587,5.380E-002,8.610,32.280,0.000,0.000,0.000,0.000,40.890,No
 Zone Internal Gains Nominal, ICU_NURSESTN_LOBBY_FLR_2,668.77,9.6,69.930,1.430E-002,12.050,21.520,0.000,0.000,0.000,0.000,33.570,No
 Zone Internal Gains Nominal, IC_PATROOM1_MULT5_FLR_2,20.90,1.1,18.587,5.380E-002,8.610,32.280,0.000,0.000,0.000,0.000,40.890,No
 Zone Internal Gains Nominal, IC_PATROOM2_FLR_2,27.87,1.5,18.587,5.380E-002,8.610,32.280,0.000,0.000,0.000,0.000,40.890,No
 Zone Internal Gains Nominal, IC_PATROOM3_MULT6_FLR_2,20.90,1.1,18.587,5.380E-002,8.610,32.280,0.000,0.000,0.000,0.000,40.890,No
 Zone Internal Gains Nominal, KITCHEN_FLR_5,929.03,50.0,18.587,5.380E-002,12.910,81.696,304.870,0.000,0.000,0.000,399.476,No
 Zone Internal Gains Nominal, LAB_FLR_3,264.77,14.2,18.587,5.380E-002,15.060,43.040,0.000,0.000,0.000,0.000,58.100,No
 Zone Internal Gains Nominal, LAB_FLR_4,264.77,14.2,18.587,5.380E-002,15.060,43.040,0.000,0.000,0.000,0.000,58.100,No
 Zone Internal Gains Nominal, LOBBY_RECORDS_FLR_1,1474.81,21.1,69.930,1.430E-002,15.820,1.080,0.000,0.000,0.000,0.000,16.900,No
 Zone Internal Gains Nominal, NURSESTN_LOBBY_FLR_3,905.80,13.0,69.930,1.430E-002,12.700,11.190,0.000,0.000,0.000,0.000,23.890,No
 Zone Internal Gains Nominal, NURSESTN_LOBBY_FLR_4,905.80,13.0,69.930,1.430E-002,12.700,11.190,0.000,0.000,0.000,0.000,23.890,No
 Zone Internal Gains Nominal, NURSESTN_LOBBY_FLR_5,1040.51,14.9,69.930,1.430E-002,12.700,11.190,0.000,0.000,0.000,0.000,23.890,No
 Zone Internal Gains Nominal, OR1_FLR_2,55.74,3.0,18.587,5.380E-002,23.670,43.040,0.000,0.000,0.000,0.000,66.710,No
 Zone Internal Gains Nominal, OR2_MULT5_FLR_2,55.74,3.0,18.587,5.380E-002,23.670,43.040,0.000,0.000,0.000,0.000,66.710,No
 Zone Internal Gains Nominal, OR3_FLR_2,55.74,3.0,18.587,5.380E-002,23.670,43.040,0.000,0.000,0.000,0.000,66.710,No
 Zone Internal Gains Nominal, OR4_FLR_2,222.97,12.0,18.587,5.380E-002,23.670,43.040,0.000,0.000,0.000,0.000,66.710,No
 Zone Internal Gains Nominal, OR_NURSESTN_LOBBY_FLR_2,1012.64,14.5,69.930,1.430E-002,12.700,11.190,0.000,0.000,0.000,0.000,23.890,No
 Zone Internal Gains Nominal, OFFICE1_FLR_5,69.70,5.2,13.280,7.530E-002,11.840,10.760,0.000,0.000,0.000,0.000,22.600,No
 Zone Internal Gains Nominal, OFFICE1_MULT4_FLR_1,13.94,1.0,13.280,7.530E-002,11.840,10.760,0.000,0.000,0.000,0.000,22.600,No
 Zone Internal Gains Nominal, OFFICE2_MULT5_FLR_5,69.68,5.2,13.280,7.530E-002,11.840,10.760,0.000,0.000,0.000,0.000,22.600,No
 Zone Internal Gains Nominal, OFFICE3_FLR_5,69.68,5.2,13.280,7.530E-002,11.840,10.760,0.000,0.000,0.000,0.000,22.600,No
 Zone Internal Gains Nominal, OFFICE4_MULT6_FLR_5,13.94,1.0,13.280,7.530E-002,11.840,10.760,0.000,0.000,0.000,0.000,22.600,No
 Zone Internal Gains Nominal, PATROOM1_MULT10_FLR_3,20.90,1.1,18.587,5.380E-002,7.530,21.520,0.000,0.000,0.000,0.000,29.050,No
 Zone Internal Gains Nominal, PATROOM1_MULT10_FLR_4,20.90,1.1,18.587,5.380E-002,7.530,21.520,0.000,0.000,0.000,0.000,29.050,No
 Zone Internal Gains Nominal, PATROOM2_FLR_3,34.84,1.9,18.587,5.380E-002,7.530,21.520,0.000,0.000,0.000,0.000,29.050,No
 Zone Internal Gains Nominal, PATROOM2_FLR_4,34.84,1.9,18.587,5.380E-002,7.530,21.520,0.000,0.000,0.000,0.000,29.050,No
 Zone Internal Gains Nominal, PATROOM3_MULT10_FLR_3,20.21,1.1,18.587,5.380E-002,7.530,21.520,0.000,0.000,0.000,0.000,29.050,No
 Zone Internal Gains Nominal, PATROOM3_MULT10_FLR_4,20.21,1.1,18.587,5.380E-002,7.530,21.520,0.000,0.000,0.000,0.000,29.050,No
 Zone Internal Gains Nominal, PATROOM4_FLR_3,34.84,1.9,18.587,5.380E-002,7.530,21.520,0.000,0.000,0.000,0.000,29.050,No
 Zone Internal Gains Nominal, PATROOM4_FLR_4,34.84,1.9,18.587,5.380E-002,7.530,21.520,0.000,0.000,0.000,0.000,29.050,No
 Zone Internal Gains Nominal, PATROOM5_MULT10_FLR_3,20.90,1.1,18.587,5.380E-002,7.530,21.520,0.000,0.000,0.000,0.000,29.050,No
 Zone Internal Gains Nominal, PATROOM5_MULT10_FLR_4,20.90,1.1,18.587,5.380E-002,7.530,21.520,0.000,0.000,0.000,0.000,29.050,No
 Zone Internal Gains Nominal, PATROOM6_FLR_3,27.87,1.5,18.587,5.380E-002,7.530,21.520,0.000,0.000,0.000,0.000,29.050,No
 Zone Internal Gains Nominal, PATROOM6_FLR_4,27.87,1.5,18.587,5.380E-002,7.530,21.520,0.000,0.000,0.000,0.000,29.050,No
 Zone Internal Gains Nominal, PATROOM7_MULT10_FLR_3,20.21,1.1,18.587,5.380E-002,7.530,21.520,0.000,0.000,0.000,0.000,29.050,No
 Zone Internal Gains Nominal, PATROOM7_MULT10_FLR_4,20.21,1.1,18.587,5.380E-002,7.530,21.520,0.000,0.000,0.000,0.000,29.050,No
 Zone Internal Gains Nominal, PATROOM8_FLR_3,27.87,1.5,18.587,5.380E-002,7.530,21.520,0.000,0.000,0.000,0.000,29.050,No
 Zone Internal Gains Nominal, PATROOM8_FLR_4,27.87,1.5,18.587,5.380E-002,7.530,21.520,0.000,0.000,0.000,0.000,29.050,No
 Zone Internal Gains Nominal, PHYSTHERAPY_FLR_3,487.74,26.2,18.587,5.380E-002,9.680,16.140,0.000,0.000,0.000,0.000,25.820,No
 Zone Internal Gains Nominal, RADIOLOGY_FLR_4,487.74,26.2,18.587,5.380E-002,4.300,53.080,0.000,0.000,0.000,0.000,57.380,No
! <People Internal Gains Nominal>,Name,Schedule Name,Zone Name,Zone Floor Area {m2},# Zone Occupants,Number of People {},People/Floor Area {person/m2},Floor Area per person {m2/person},Fraction Radiant,Fraction Convected,Sensible Fraction Calculation,Activity level,ASHRAE 55 Warnings,Carbon Dioxide Generation Rate,Nominal Minimum Number of People,Nominal Maximum Number of People,MRT Calculation Type,Work Efficiency, Clothing Insulation Calculation Method,Clothing Insulation Calculation Method Schedule,Clothing,Air Velocity,Fanger Calculation,Pierce Calculation,KSU Calculation
 People Internal Gains Nominal, BASEMENT PEOPLE,ADMIN_OCC_SCH,BASEMENT,3739.35,100.6,100.6,2.690E-002,37.175,0.300,0.700,AutoCalculate,ACTIVITY_SCH,No,3.8200E-008,0,91,Zone Averaged,WORK_EFF_SCH,Clothing Insulation Schedule,N/A,CLOTHING_SCH,AIR_VELO_SCH,Yes,No,No
 People Internal Gains Nominal, CORRIDOR_FLR_1 PEOPLE,ADMIN_OCC_SCH,CORRIDOR_FLR_1,569.03,6.1,6.1,1.080E-002,92.593,0.300,0.700,AutoCalculate,ACTIVITY_SCH,No,3.8200E-008,0,6,Zone Averaged,WORK_EFF_SCH,Clothing Insulation Schedule,N/A,CLOTHING_SCH,AIR_VELO_SCH,Yes,No,No
 People Internal Gains Nominal, CORRIDOR_FLR_2 PEOPLE,ADMIN_OCC_SCH,CORRIDOR_FLR_2,569.03,6.1,6.1,1.080E-002,92.593,0.300,0.700,AutoCalculate,ACTIVITY_SCH,No,3.8200E-008,0,6,Zone Averaged,WORK_EFF_SCH,Clothing Insulation Schedule,N/A,CLOTHING_SCH,AIR_VELO_SCH,Yes,No,No
 People Internal Gains Nominal, CORRIDOR_FLR_5 PEOPLE,ADMIN_OCC_SCH,CORRIDOR_FLR_5,501.68,5.4,5.4,1.080E-002,92.593,0.300,0.700,AutoCalculate,ACTIVITY_SCH,No,3.8200E-008,0,5,Zone Averaged,WORK_EFF_SCH,Clothing Insulation Schedule,N/A,CLOTHING_SCH,AIR_VELO_SCH,Yes,No,No
 People Internal Gains Nominal, CORRIDOR_NW_FLR_3 PEOPLE,ADMIN_OCC_SCH,CORRIDOR_NW_FLR_3,566.71,6.1,6.1,1.080E-002,92.593,0.300,0.700,AutoCalculate,ACTIVITY_SCH,No,3.8200E-008,0,6,Zone Averaged,WORK_EFF_SCH,Clothing Insulation Schedule,N/A,CLOTHING_SCH,AIR_VELO_SCH,Yes,No,No
 People Internal Gains Nominal, CORRIDOR_NW_FLR_4 PEOPLE,ADMIN_OCC_SCH,CORRIDOR_NW_FLR_4,566.71,6.1,6.1,1.080E-002,92.593,0.300,0.700,AutoCalculate,ACTIVITY_SCH,No,3.8200E-008,0,6,Zone Averaged,WORK_EFF_SCH,Clothing Insulation Schedule,N/A,CLOTHING_SCH,AIR_VELO_SCH,Yes,No,No
 People Internal Gains Nominal, CORRIDOR_SE_FLR_3 PEOPLE,ADMIN_OCC_SCH,CORRIDOR_SE_FLR_3,566.71,6.1,6.1,1.080E-002,92.593,0.300,0.700,AutoCalculate,ACTIVITY_SCH,No,3.8200E-008,0,6,Zone Averaged,WORK_EFF_SCH,Clothing Insulation Schedule,N/A,CLOTHING_SCH,AIR_VELO_SCH,Yes,No,No
 People Internal Gains Nominal, CORRIDOR_SE_FLR_4 PEOPLE,ADMIN_OCC_SCH,CORRIDOR_SE_FLR_4,566.71,6.1,6.1,1.080E-002,92.593,0.300,0.700,AutoCalculate,ACTIVITY_SCH,No,3.8200E-008,0,6,Zone Averaged,WORK_EFF_SCH,Clothing Insulation Schedule,N/A,CLOTHING_SCH,AIR_VELO_SCH,Yes,No,No
 People Internal Gains Nominal, DINING_FLR_5 PEOPLE,ADMIN_OCC_SCH,DINING_FLR_5,696.77,75.0,75.0,0.108,9.294,0.300,0.700,AutoCalculate,ACTIVITY_SCH,No,3.8200E-008,0,67,Zone Averaged,WORK_EFF_SCH,Clothing Insulation Schedule,N/A,CLOTHING_SCH,AIR_VELO_SCH,Yes,No,No
 People Internal Gains Nominal, ER_EXAM1_MULT4_FLR_1 PEOPLE,CRITICAL_OCC_SCH,ER_EXAM1_MULT4_FLR_1,27.87,6.0,6.0,0.215,4.651,0.300,0.700,AutoCalculate,ACTIVITY_SCH,No,3.8200E-008,2,5,Zone Averaged,WORK_EFF_SCH,Clothing Insulation Schedule,N/A,CLOTHING_SCH,AIR_VELO_SCH,Yes,No,No
 People Internal Gains Nominal, ER_EXAM3_MULT4_FLR_1 PEOPLE,CRITICAL_OCC_SCH,ER_EXAM3_MULT4_FLR_1,27.87,6.0,6.0,0.215,4.651,0.300,0.700,AutoCalculate,ACTIVITY_SCH,No,3.8200E-008,2,5,Zone Averaged,WORK_EFF_SCH,Clothing Insulation Schedule,N/A,CLOTHING_SCH,AIR_VELO_SCH,Yes,No,No
 People Internal Gains Nominal, ER_NURSESTN_LOBBY_FLR_1 PEOPLE,ADMIN_OCC_SCH,ER_NURSESTN_LOBBY_FLR_1,1235.61,17.7,17.7,1.430E-002,69.930,0.300,0.700,AutoCalculate,ACTIVITY_SCH,No,3.8200E-008,0,16,Zone Averaged,WORK_EFF_SCH,Clothing Insulation Schedule,N/A,CLOTHING_SCH,AIR_VELO_SCH,Yes,No,No
 People Internal Gains Nominal, ER_TRAUMA1_FLR_1 PEOPLE,CRITICAL_OCC_SCH,ER_TRAUMA1_FLR_1,27.87,6.0,6.0,0.215,4.651,0.300,0.700,AutoCalculate,ACTIVITY_SCH,No,3.8200E-008,2,5,Zone Averaged,WORK_EFF_SCH,Clothing Insulation Schedule,N/A,CLOTHING_SCH,AIR_VELO_SCH,Yes,No,No
 People Internal Gains Nominal, ER_TRAUMA2_FLR_1 PEOPLE,CRITICAL_OCC_SCH,ER_TRAUMA2_FLR_1,27.87,6.0,6.0,0.215,4.651,0.300,0.700,AutoCalculate,ACTIVITY_SCH,No,3.8200E-008,2,5,Zone Averaged,WORK_EFF_SCH,Clothing Insulation Schedule,N/A,CLOTHING_SCH,AIR_VELO_SCH,Yes,No,No
 People Internal Gains Nominal, ER_TRIAGE_MULT4_FLR_1 PEOPLE,CRITICAL_OCC_SCH,ER_TRIAGE_MULT4_FLR_1,27.87,6.0,6.0,0.215,4.651,0.300,0.700,AutoCalculate,ACTIVITY_SCH,No,3.8200E-008,2,5,Zone Averaged,WORK_EFF_SCH,Clothing Insulation Schedule,N/A,CLOTHING_SCH,AIR_VELO_SCH,Yes,No,No
 People Internal Gains Nominal, ICU_FLR_2 PEOPLE,CRITICAL_OCC_SCH,ICU_FLR_2,617.96,33.2,33.2,5.380E-002,18.587,0.300,0.700,AutoCalculate,ACTIVITY_SCH,No,3.8200E-008,13,30,Zone Averaged,WORK_EFF_SCH,Clothing Insulation Schedule,N/A,CLOTHING_SCH,AIR_VELO_SCH,Yes,No,No
 People Internal Gains Nominal, ICU_NURSESTN_LOBBY_FLR_2 PEOPLE,ADMIN_OCC_SCH,ICU_NURSESTN_LOBBY_FLR_2,668.77,9.6,9.6,1.430E-002,69.930,0.300,0.700,AutoCalculate,ACTIVITY_SCH,No,3.8200E-008,0,9,Zone Averaged,WORK_EFF_SCH,Clothing Insulation Schedule,N/A,CLOTHING_SCH,AIR_VELO_SCH,Yes,No,No
 People Internal Gains Nominal, IC_PATROOM1_MULT5_FLR_2 PEOPLE,CRITICAL_OCC_SCH,IC_PATROOM1_MULT5_FLR_2,20.90,1.1,1.1,5.380E-002,18.587,0.300,0.700,AutoCalculate,ACTIVITY_SCH,No,3.8200E-008,0,1,Zone Averaged,WORK_EFF_SCH,Clothing Insulation Schedule,N/A,CLOTHING_SCH,AIR_VELO_SCH,Yes,No,No
 People Internal Gains Nominal, IC_PATROOM2_FLR_2 PEOPLE,CRITICAL_OCC_SCH,IC_PATROOM2_FLR_2,27.87,1.5,1.5,5.380E-002,18.587,0.300,0.700,AutoCalculate,ACTIVITY_SCH,No,3.8200E-008,1,1,Zone Averaged,WORK_EFF_SCH,Clothing Insulation Schedule,N/A,CLOTHING_SCH,AIR_VELO_SCH,Yes,No,No
 People Internal Gains Nominal, IC_PATROOM3_MULT6_FLR_2 PEOPLE,CRITICAL_OCC_SCH,IC_PATROOM3_MULT6_FLR_2,20.90,1.1,1.1,5.380E-002,18.587,0.300,0.700,AutoCalculate,ACTIVITY_SCH,No,3.8200E-008,0,1,Zone Averaged,WORK_EFF_SCH,Clothing Insulation Schedule,N/A,CLOTHING_SCH,AIR_VELO_SCH,Yes,No,No
 People Internal Gains Nominal, KITCHEN_FLR_5 PEOPLE,ADMIN_OCC_SCH,KITCHEN_FLR_5,929.03,50.0,50.0,5.380E-002,18.587,0.300,0.700,AutoCalculate,ACTIVITY_SCH,No,3.8200E-008,0,45,Zone Averaged,WORK_EFF_SCH,Clothing Insulation Schedule,N/A,CLOTHING_SCH,AIR_VELO_SCH,Yes,No,No
 People Internal Gains Nominal, LAB_FLR_3 PEOPLE,ADMIN_OCC_SCH,LAB_FLR_3,264.77,14.2,14.2,5.380E-002,18.587,0.300,0.700,AutoCalculate,ACTIVITY_SCH,No,3.8200E-008,0,13,Zone Averaged,WORK_EFF_SCH,Clothing Insulation Schedule,N/A,CLOTHING_SCH,AIR_VELO_SCH,Yes,No,No
 People Internal Gains Nominal, LAB_FLR_4 PEOPLE,ADMIN_OCC_SCH,LAB_FLR_4,264.77,14.2,14.2,5.380E-002,18.587,0.300,0.700,AutoCalculate,ACTIVITY_SCH,No,3.8200E-008,0,13,Zone Averaged,WORK_EFF_SCH,Clothing Insulation Schedule,N/A,CLOTHING_SCH,AIR_VELO_SCH,Yes,No,No
 People Internal Gains Nominal, LOBBY_RECORDS_FLR_1 PEOPLE,ADMIN_OCC_SCH,LOBBY_RECORDS_FLR_1,1474.81,21.1,21.1,1.430E-002,69.930,0.300,0.700,AutoCalculate,ACTIVITY_SCH,No,3.8200E-008,0,19,Zone Averaged,WORK_EFF_SCH,Clothing Insulation Schedule,N/A,CLOTHING_SCH,AIR_VELO_SCH,Yes,No,No
 People Internal Gains Nominal, NURSESTN_LOBBY_FLR_3 PEOPLE,ADMIN_OCC_SCH,NURSESTN_LOBBY_FLR_3,905.80,13.0,13.0,1.430E-002,69.930,0.300,0.700,AutoCalculate,ACTIVITY_SCH,No,3.8200E-008,0,12,Zone Averaged,WORK_EFF_SCH,Clothing Insulation Schedule,N/A,CLOTHING_SCH,AIR_VELO_SCH,Yes,No,No
 People Internal Gains Nominal, NURSESTN_LOBBY_FLR_4 PEOPLE,ADMIN_OCC_SCH,NURSESTN_LOBBY_FLR_4,905.80,13.0,13.0,1.430E-002,69.930,0.300,0.700,AutoCalculate,ACTIVITY_SCH,No,3.8200E-008,0,12,Zone Averaged,WORK_EFF_SCH,Clothing Insulation Schedule,N/A,CLOTHING_SCH,AIR_VELO_SCH,Yes,No,No
 People Internal Gains Nominal, NURSESTN_LOBBY_FLR_5 PEOPLE,ADMIN_OCC_SCH,NURSESTN_LOBBY_FLR_5,1040.51,14.9,14.9,1.430E-002,69.930,0.300,0.700,AutoCalculate,ACTIVITY_SCH,No,3.8200E-008,0,13,Zone Averaged,WORK_EFF_SCH,Clothing Insulation Schedule,N/A,CLOTHING_SCH,AIR_VELO_SCH,Yes,No,No
 People Internal Gains Nominal, OR1_FLR_2 PEOPLE,CRITICAL_OCC_SCH,OR1_FLR_2,55.74,3.0,3.0,5.380E-002,18.587,0.300,0.700,AutoCalculate,ACTIVITY_SCH,No,3.8200E-008,1,3,Zone Averaged,WORK_EFF_SCH,Clothing Insulation Schedule,N/A,CLOTHING_SCH,AIR_VELO_SCH,Yes,No,No
 People Internal Gains Nominal, OR2_MULT5_FLR_2 PEOPLE,CRITICAL_OCC_SCH,OR2_MULT5_FLR_2,55.74,3.0,3.0,5.380E-002,18.587,0.300,0.700,AutoCalculate,ACTIVITY_SCH,No,3.8200E-008,1,3,Zone Averaged,WORK_EFF_SCH,Clothing Insulation Schedule,N/A,CLOTHING_SCH,AIR_VELO_SCH,Yes,No,No
 People Internal Gains Nominal, OR3_FLR_2 PEOPLE,CRITICAL_OCC_SCH,OR3_FLR_2,55.74,3.0,3.0,5.380E-002,18.587,0.300,0.700,AutoCalculate,ACTIVITY_SCH,No,3.8200E-008,1,3,Zone Averaged,WORK_EFF_SCH,Clothing Insulation Schedule,N/A,CLOTHING_SCH,AIR_VELO_SCH,Yes,No,No
 People Internal Gains Nominal, OR4_FLR_2 PEOPLE,CRITICAL_OCC_SCH,OR4_FLR_2,222.97,12.0,12.0,5.380E-002,18.587,0.300,0.700,AutoCalculate,ACTIVITY_SCH,No,3.8200E-008,5,11,Zone Averaged,WORK_EFF_SCH,Clothing Insulation Schedule,N/A,CLOTHING_SCH,AIR_VELO_SCH,Yes,No,No
 People Internal Gains Nominal, OR_NURSESTN_LOBBY_FLR_2 PEOPLE,ADMIN_OCC_SCH,OR_NURSESTN_LOBBY_FLR_2,1012.64,14.5,14.5,1.430E-002,69.930,0.300,0.700,AutoCalculate,ACTIVITY_SCH,No,3.8200E-008,0,13,Zone Averaged,WORK_EFF_SCH,Clothing Insulation Schedule,N/A,CLOTHING_SCH,AIR_VELO_SCH,Yes,No,No
 People Internal Gains Nominal, OFFICE1_FLR_5 PEOPLE,ADMIN_OCC_SCH,OFFICE1_FLR_5,69.70,5.2,5.2,7.530E-002,13.280,0.300,0.700,AutoCalculate,ACTIVITY_SCH,No,3.8200E-008,0,5,Zone Averaged,WORK_EFF_SCH,Clothing Insulation Schedule,N/A,CLOTHING_SCH,AIR_VELO_SCH,Yes,No,No
 People Internal Gains Nominal, OFFICE1_MULT4_FLR_1 PEOPLE,ADMIN_OCC_SCH,OFFICE1_MULT4_FLR_1,13.94,1.0,1.0,7.530E-002,13.280,0.300,0.700,AutoCalculate,ACTIVITY_SCH,No,3.8200E-008,0,1,Zone Averaged,WORK_EFF_SCH,Clothing Insulation Schedule,N/A,CLOTHING_SCH,AIR_VELO_SCH,Yes,No,No
 People Internal Gains Nominal, OFFICE2_MULT5_FLR_5 PEOPLE,ADMIN_OCC_SCH,OFFICE2_MULT5_FLR_5,69.68,5.2,5.2,7.530E-002,13.280,0.300,0.700,AutoCalculate,ACTIVITY_SCH,No,3.8200E-008,0,5,Zone Averaged,WORK_EFF_SCH,Clothing Insulation Schedule,N/A,CLOTHING_SCH,AIR_VELO_SCH,Yes,No,No
 People Internal Gains Nominal, OFFICE3_FLR_5 PEOPLE,ADMIN_OCC_SCH,OFFICE3_FLR_5,69.68,5.2,5.2,7.530E-002,13.280,0.300,0.700,AutoCalculate,ACTIVITY_SCH,No,3.8200E-008,0,5,Zone Averaged,WORK_EFF_SCH,Clothing Insulation Schedule,N/A,CLOTHING_SCH,AIR_VELO_SCH,Yes,No,No
 People Internal Gains Nominal, OFFICE4_MULT6_FLR_5 PEOPLE,ADMIN_OCC_SCH,OFFICE4_MULT6_FLR_5,13.94,1.0,1.0,7.530E-002,13.280,0.300,0.700,AutoCalculate,ACTIVITY_SCH,No,3.8200E-008,0,1,Zone Averaged,WORK_EFF_SCH,Clothing Insulation Schedule,N/A,CLOTHING_SCH,AIR_VELO_SCH,Yes,No,No
 People Internal Gains Nominal, PATROOM1_MULT10_FLR_3 PEOPLE,CRITICAL_OCC_SCH,PATROOM1_MULT10_FLR_3,20.90,1.1,1.1,5.380E-002,18.587,0.300,0.700,AutoCalculate,ACTIVITY_SCH,No,3.8200E-008,0,1,Zone Averaged,WORK_EFF_SCH,Clothing Insulation Schedule,N/A,CLOTHING_SCH,AIR_VELO_SCH,Yes,No,No
 People Internal Gains Nominal, PATROOM1_MULT10_FLR_4 PEOPLE,CRITICAL_OCC_SCH,PATROOM1_MULT10_FLR_4,20.90,1.1,1.1,5.380E-002,18.587,0.300,0.700,AutoCalculate,ACTIVITY_SCH,No,3.8200E-008,0,1,Zone Averaged,WORK_EFF_SCH,Clothing Insulation Schedule,N/A,CLOTHING_SCH,AIR_VELO_SCH,Yes,No,No
 People Internal Gains Nominal, PATROOM2_FLR_3 PEOPLE,CRITICAL_OCC_SCH,PATROOM2_FLR_3,34.84,1.9,1.9,5.380E-002,18.587,0.300,0.700,AutoCalculate,ACTIVITY_SCH,No,3.8200E-008,1,2,Zone Averaged,WORK_EFF_SCH,Clothing Insulation Schedule,N/A,CLOTHING_SCH,AIR_VELO_SCH,Yes,No,No
 People Internal Gains Nominal, PATROOM2_FLR_4 PEOPLE,CRITICAL_OCC_SCH,PATROOM2_FLR_4,34.84,1.9,1.9,5.380E-002,18.587,0.300,0.700,AutoCalculate,ACTIVITY_SCH,No,3.8200E-008,1,2,Zone Averaged,WORK_EFF_SCH,Clothing Insulation Schedule,N/A,CLOTHING_SCH,AIR_VELO_SCH,Yes,No,No
 People Internal Gains Nominal, PATROOM3_MULT10_FLR_3 PEOPLE,CRITICAL_OCC_SCH,PATROOM3_MULT10_FLR_3,20.21,1.1,1.1,5.380E-002,18.587,0.300,0.700,AutoCalculate,ACTIVITY_SCH,No,3.8200E-008,0,1,Zone Averaged,WORK_EFF_SCH,Clothing Insulation Schedule,N/A,CLOTHING_SCH,AIR_VELO_SCH,Yes,No,No
 People Internal Gains Nominal, PATROOM3_MULT10_FLR_4 PEOPLE,CRITICAL_OCC_SCH,PATROOM3_MULT10_FLR_4,20.21,1.1,1.1,5.380E-002,18.587,0.300,0.700,AutoCalculate,ACTIVITY_SCH,No,3.8200E-008,0,1,Zone Averaged,WORK_EFF_SCH,Clothing Insulation Schedule,N/A,CLOTHING_SCH,AIR_VELO_SCH,Yes,No,No
 People Internal Gains Nominal, PATROOM4_FLR_3 PEOPLE,CRITICAL_OCC_SCH,PATROOM4_FLR_3,34.84,1.9,1.9,5.380E-002,18.587,0.300,0.700,AutoCalculate,ACTIVITY_SCH,No,3.8200E-008,1,2,Zone Averaged,WORK_EFF_SCH,Clothing Insulation Schedule,N/A,CLOTHING_SCH,AIR_VELO_SCH,Yes,No,No
 People Internal Gains Nominal, PATROOM4_FLR_4 PEOPLE,CRITICAL_OCC_SCH,PATROOM4_FLR_4,34.84,1.9,1.9,5.380E-002,18.587,0.300,0.700,AutoCalculate,ACTIVITY_SCH,No,3.8200E-008,1,2,Zone Averaged,WORK_EFF_SCH,Clothing Insulation Schedule,N/A,CLOTHING_SCH,AIR_VELO_SCH,Yes,No,No
 People Internal Gains Nominal, PATROOM5_MULT10_FLR_3 PEOPLE,CRITICAL_OCC_SCH,PATROOM5_MULT10_FLR_3,20.90,1.1,1.1,5.380E-002,18.587,0.300,0.700,AutoCalculate,ACTIVITY_SCH,No,3.8200E-008,0,1,Zone Averaged,WORK_EFF_SCH,Clothing Insulation Schedule,N/A,CLOTHING_SCH,AIR_VELO_SCH,Yes,No,No
 People Internal Gains Nominal, PATROOM5_MULT10_FLR_4 PEOPLE,CRITICAL_OCC_SCH,PATROOM5_MULT10_FLR_4,20.90,1.1,1.1,5.380E-002,18.587,0.300,0.700,AutoCalculate,ACTIVITY_SCH,No,3.8200E-008,0,1,Zone Averaged,WORK_EFF_SCH,Clothing Insulation Schedule,N/A,CLOTHING_SCH,AIR_VELO_SCH,Yes,No,No
 People Internal Gains Nominal, PATROOM6_FLR_3 PEOPLE,CRITICAL_OCC_SCH,PATROOM6_FLR_3,27.87,1.5,1.5,5.380E-002,18.587,0.300,0.700,AutoCalculate,ACTIVITY_SCH,No,3.8200E-008,1,1,Zone Averaged,WORK_EFF_SCH,Clothing Insulation Schedule,N/A,CLOTHING_SCH,AIR_VELO_SCH,Yes,No,No
 People Internal Gains Nominal, PATROOM6_FLR_4 PEOPLE,CRITICAL_OCC_SCH,PATROOM6_FLR_4,27.87,1.5,1.5,5.380E-002,18.587,0.300,0.700,AutoCalculate,ACTIVITY_SCH,No,3.8200E-008,1,1,Zone Averaged,WORK_EFF_SCH,Clothing Insulation Schedule,N/A,CLOTHING_SCH,AIR_VELO_SCH,Yes,No,No
 People Internal Gains Nominal, PATROOM7_MULT10_FLR_3 PEOPLE,CRITICAL_OCC_SCH,PATROOM7_MULT10_FLR_3,20.21,1.1,1.1,5.380E-002,18.587,0.300,0.700,AutoCalculate,ACTIVITY_SCH,No,3.8200E-008,0,1,Zone Averaged,WORK_EFF_SCH,Clothing Insulation Schedule,N/A,CLOTHING_SCH,AIR_VELO_SCH,Yes,No,No
 People Internal Gains Nominal, PATROOM7_MULT10_FLR_4 PEOPLE,CRITICAL_OCC_SCH,PATROOM7_MULT10_FLR_4,20.21,1.1,1.1,5.380E-002,18.587,0.300,0.700,AutoCalculate,ACTIVITY_SCH,No,3.8200E-008,0,1,Zone Averaged,WORK_EFF_SCH,Clothing Insulation Schedule,N/A,CLOTHING_SCH,AIR_VELO_SCH,Yes,No,No
 People Internal Gains Nominal, PATROOM8_FLR_3 PEOPLE,CRITICAL_OCC_SCH,PATROOM8_FLR_3,27.87,1.5,1.5,5.380E-002,18.587,0.300,0.700,AutoCalculate,ACTIVITY_SCH,No,3.8200E-008,1,1,Zone Averaged,WORK_EFF_SCH,Clothing Insulation Schedule,N/A,CLOTHING_SCH,AIR_VELO_SCH,Yes,No,No
 People Internal Gains Nominal, PATROOM8_FLR_4 PEOPLE,CRITICAL_OCC_SCH,PATROOM8_FLR_4,27.87,1.5,1.5,5.380E-002,18.587,0.300,0.700,AutoCalculate,ACTIVITY_SCH,No,3.8200E-008,1,1,Zone Averaged,WORK_EFF_SCH,Clothing Insulation Schedule,N/A,CLOTHING_SCH,AIR_VELO_SCH,Yes,No,No
 People Internal Gains Nominal, PHYSTHERAPY_FLR_3 PEOPLE,ADMIN_OCC_SCH,PHYSTHERAPY_FLR_3,487.74,26.2,26.2,5.380E-002,18.587,0.300,0.700,AutoCalculate,ACTIVITY_SCH,No,3.8200E-008,0,24,Zone Averaged,WORK_EFF_SCH,Clothing Insulation Schedule,N/A,CLOTHING_SCH,AIR_VELO_SCH,Yes,No,No
 People Internal Gains Nominal, RADIOLOGY_FLR_4 PEOPLE,ADMIN_OCC_SCH,RADIOLOGY_FLR_4,487.74,26.2,26.2,5.380E-002,18.587,0.300,0.700,AutoCalculate,ACTIVITY_SCH,No,3.8200E-008,0,24,Zone Averaged,WORK_EFF_SCH,Clothing Insulation Schedule,N/A,CLOTHING_SCH,AIR_VELO_SCH,Yes,No,No
! <Lights Internal Gains Nominal>,Name,Schedule Name,Zone Name,Zone Floor Area {m2},# Zone Occupants,Lighting Level {W},Lights/Floor Area {W/m2},Lights per person {W/person},Fraction Return Air,Fraction Radiant,Fraction Short Wave,Fraction Convected,Fraction Replaceable,End-Use Category,Nominal Minimum Lighting Level {W},Nominal Maximum Lighting Level {W}
 Lights Internal Gains Nominal, BASEMENT_LIGHTS,ADMIN_LIGHT_SCH,BASEMENT,3739.35,100.6,44273.873,11.840,440.148,0.000,0.700,0.200,0.100,1.000,General,2213.694,39846.485
 Lights Internal Gains Nominal, CORRIDOR_FLR_1_LIGHTS,ADMIN_LIGHT_SCH,CORRIDOR_FLR_1,569.03,6.1,6122.775,10.760,996.296,0.000,0.700,0.200,0.100,1.000,General,306.139,5510.497
 Lights Internal Gains Nominal, CORRIDOR_FLR_2_LIGHTS,ADMIN_LIGHT_SCH,CORRIDOR_FLR_2,569.03,6.1,6122.775,10.760,996.296,0.000,0.700,0.200,0.100,1.000,General,306.139,5510.497
 Lights Internal Gains Nominal, CORRIDOR_FLR_5_LIGHTS,ADMIN_LIGHT_SCH,CORRIDOR_FLR_5,501.68,5.4,5398.038,10.760,996.296,0.000,0.700,0.200,0.100,1.000,General,269.902,4858.234
 Lights Internal Gains Nominal, CORRIDOR_NW_FLR_3_LIGHTS,ADMIN_LIGHT_SCH,CORRIDOR_NW_FLR_3,566.71,6.1,6097.784,10.760,996.296,0.000,0.700,0.200,0.100,1.000,General,304.889,5488.006
 Lights Internal Gains Nominal, CORRIDOR_NW_FLR_4_LIGHTS,ADMIN_LIGHT_SCH,CORRIDOR_NW_FLR_4,566.71,6.1,6097.784,10.760,996.296,0.000,0.700,0.200,0.100,1.000,General,304.889,5488.006
 Lights Internal Gains Nominal, CORRIDOR_SE_FLR_3_LIGHTS,ADMIN_LIGHT_SCH,CORRIDOR_SE_FLR_3,566.71,6.1,6097.784,10.760,996.296,0.000,0.700,0.200,0.100,1.000,General,304.889,5488.006
 Lights Internal Gains Nominal, CORRIDOR_SE_FLR_4_LIGHTS,ADMIN_LIGHT_SCH,CORRIDOR_SE_FLR_4,566.71,6.1,6097.784,10.760,996.296,0.000,0.700,0.200,0.100,1.000,General,304.889,5488.006
 Lights Internal Gains Nominal, DINING_FLR_5_LIGHTS,ADMIN_LIGHT_SCH,DINING_FLR_5,696.77,75.0,6744.761,9.680,89.963,0.000,0.700,0.200,0.100,1.000,General,337.238,6070.285
 Lights Internal Gains Nominal, ER_EXAM1_MULT4_FLR_1_LIGHTS,CRITICAL_LIGHT_SCH,ER_EXAM1_MULT4_FLR_1,27.87,6.0,809.650,29.050,135.117,0.000,0.700,0.200,0.100,1.000,General,404.825,728.685
 Lights Internal Gains Nominal, ER_EXAM3_MULT4_FLR_1_LIGHTS,CRITICAL_LIGHT_SCH,ER_EXAM3_MULT4_FLR_1,27.87,6.0,809.650,29.050,135.117,0.000,0.700,0.200,0.100,1.000,General,404.825,728.685
 Lights Internal Gains Nominal, ER_NURSESTN_LOBBY_FLR_1_LIGHTS,ADMIN_LIGHT_SCH,ER_NURSESTN_LOBBY_FLR_1,1235.61,17.7,14889.106,12.050,842.658,0.000,0.700,0.200,0.100,1.000,General,744.455,13400.195
 Lights Internal Gains Nominal, ER_TRAUMA1_FLR_1_LIGHTS,CRITICAL_LIGHT_SCH,ER_TRAUMA1_FLR_1,27.87,6.0,809.650,29.050,135.117,0.000,0.700,0.200,0.100,1.000,General,404.825,728.685
 Lights Internal Gains Nominal, ER_TRAUMA2_FLR_1_LIGHTS,CRITICAL_LIGHT_SCH,ER_TRAUMA2_FLR_1,27.87,6.0,809.650,29.050,135.117,0.000,0.700,0.200,0.100,1.000,General,404.825,728.685
 Lights Internal Gains Nominal, ER_TRIAGE_MULT4_FLR_1_LIGHTS,CRITICAL_LIGHT_SCH,ER_TRIAGE_MULT4_FLR_1,27.87,6.0,809.650,29.050,135.117,0.000,0.700,0.200,0.100,1.000,General,404.825,728.685
 Lights Internal Gains Nominal, ICU_FLR_2_LIGHTS,CRITICAL_LIGHT_SCH,ICU_FLR_2,617.96,33.2,5320.674,8.610,160.038,0.000,0.700,0.200,0.100,1.000,General,2660.337,4788.607
 Lights Internal Gains Nominal, ICU_NURSESTN_LOBBY_FLR_2_LIGHTS,ADMIN_LIGHT_SCH,ICU_NURSESTN_LOBBY_FLR_2,668.77,9.6,8058.652,12.050,842.658,0.000,0.700,0.200,0.100,1.000,General,402.933,7252.787
 Lights Internal Gains Nominal, IC_PATROOM1_MULT5_FLR_2_LIGHTS,CRITICAL_LIGHT_SCH,IC_PATROOM1_MULT5_FLR_2,20.90,1.1,179.976,8.610,160.038,0.000,0.700,0.200,0.100,1.000,General,89.988,161.979
 Lights Internal Gains Nominal, IC_PATROOM2_FLR_2_LIGHTS,CRITICAL_LIGHT_SCH,IC_PATROOM2_FLR_2,27.87,1.5,239.969,8.610,160.038,0.000,0.700,0.200,0.100,1.000,General,119.984,215.972
 Lights Internal Gains Nominal, IC_PATROOM3_MULT6_FLR_2_LIGHTS,CRITICAL_LIGHT_SCH,IC_PATROOM3_MULT6_FLR_2,20.90,1.1,179.976,8.610,160.038,0.000,0.700,0.200,0.100,1.000,General,89.988,161.979
 Lights Internal Gains Nominal, KITCHEN_FLR_5_LIGHTS,ADMIN_LIGHT_SCH,KITCHEN_FLR_5,929.03,50.0,11993.782,12.910,239.963,0.000,0.700,0.200,0.100,1.000,General,599.689,10794.404
 Lights Internal Gains Nominal, LAB_FLR_3_LIGHTS,ADMIN_LIGHT_SCH,LAB_FLR_3,264.77,14.2,3987.491,15.060,279.926,0.000,0.700,0.200,0.100,1.000,General,199.375,3588.742
 Lights Internal Gains Nominal, LAB_FLR_4_LIGHTS,ADMIN_LIGHT_SCH,LAB_FLR_4,264.77,14.2,3987.491,15.060,279.926,0.000,0.700,0.200,0.100,1.000,General,199.375,3588.742
 Lights Internal Gains Nominal, LOBBY_RECORDS_FLR_1_LIGHTS,ADMIN_LIGHT_SCH,LOBBY_RECORDS_FLR_1,1474.81,21.1,23331.504,15.820,1106.294,0.000,0.700,0.200,0.100,1.000,General,1166.575,20998.354
 Lights Internal Gains Nominal, NURSESTN_LOBBY_FLR_3_LIGHTS,ADMIN_LIGHT_SCH,NURSESTN_LOBBY_FLR_3,905.80,13.0,11503.719,12.700,888.112,0.000,0.700,0.200,0.100,1.000,General,575.186,10353.347
 Lights Internal Gains Nominal, NURSESTN_LOBBY_FLR_4_LIGHTS,ADMIN_LIGHT_SCH,NURSESTN_LOBBY_FLR_4,905.80,13.0,11503.719,12.700,888.112,0.000,0.700,0.200,0.100,1.000,General,575.186,10353.347
 Lights Internal Gains Nominal, NURSESTN_LOBBY_FLR_5_LIGHTS,ADMIN_LIGHT_SCH,NURSESTN_LOBBY_FLR_5,1040.51,14.9,13214.528,12.700,888.112,0.000,0.700,0.200,0.100,1.000,General,660.726,11893.076
 Lights Internal Gains Nominal, OR1_FLR_2_LIGHTS,CRITICAL_LIGHT_SCH,OR1_FLR_2,55.74,3.0,1319.409,23.670,439.964,0.000,0.700,0.200,0.100,1.000,General,659.704,1187.468
 Lights Internal Gains Nominal, OR2_MULT5_FLR_2_LIGHTS,CRITICAL_LIGHT_SCH,OR2_MULT5_FLR_2,55.74,3.0,1319.409,23.670,439.964,0.000,0.700,0.200,0.100,1.000,General,659.704,1187.468
 Lights Internal Gains Nominal, OR3_FLR_2_LIGHTS,CRITICAL_LIGHT_SCH,OR3_FLR_2,55.74,3.0,1319.409,23.670,439.964,0.000,0.700,0.200,0.100,1.000,General,659.704,1187.468
 Lights Internal Gains Nominal, OR4_FLR_2_LIGHTS,CRITICAL_LIGHT_SCH,OR4_FLR_2,222.97,12.0,5277.636,23.670,439.964,0.000,0.700,0.200,0.100,1.000,General,2638.818,4749.872
 Lights Internal Gains Nominal, OR_NURSESTN_LOBBY_FLR_2_LIGHTS,ADMIN_LIGHT_SCH,OR_NURSESTN_LOBBY_FLR_2,1012.64,14.5,12860.568,12.700,888.112,0.000,0.700,0.200,0.100,1.000,General,643.028,11574.511
 Lights Internal Gains Nominal, OFFICE1_FLR_5_LIGHTS,ADMIN_LIGHT_SCH,OFFICE1_FLR_5,69.70,5.2,825.196,11.840,157.238,0.000,0.700,0.200,0.100,1.000,General,41.260,742.676
 Lights Internal Gains Nominal, OFFICE1_MULT4_FLR_1_LIGHTS,ADMIN_LIGHT_SCH,OFFICE1_MULT4_FLR_1,13.94,1.0,164.996,11.840,157.238,0.000,0.700,0.200,0.100,1.000,General,8.250,148.496
 Lights Internal Gains Nominal, OFFICE2_MULT5_FLR_5_LIGHTS,ADMIN_LIGHT_SCH,OFFICE2_MULT5_FLR_5,69.68,5.2,824.979,11.840,157.238,0.000,0.700,0.200,0.100,1.000,General,41.249,742.481
 Lights Internal Gains Nominal, OFFICE3_FLR_5_LIGHTS,ADMIN_LIGHT_SCH,OFFICE3_FLR_5,69.68,5.2,824.979,11.840,157.238,0.000,0.700,0.200,0.100,1.000,General,41.249,742.481
 Lights Internal Gains Nominal, OFFICE4_MULT6_FLR_5_LIGHTS,ADMIN_LIGHT_SCH,OFFICE4_MULT6_FLR_5,13.94,1.0,164.996,11.840,157.238,0.000,0.700,0.200,0.100,1.000,General,8.250,148.496
 Lights Internal Gains Nominal, PATROOM1_MULT10_FLR_3_LIGHTS,CRITICAL_LIGHT_SCH,PATROOM1_MULT10_FLR_3,20.90,1.1,157.401,7.530,139.963,0.000,0.700,0.200,0.100,1.000,General,78.700,141.661
 Lights Internal Gains Nominal, PATROOM1_MULT10_FLR_4_LIGHTS,CRITICAL_LIGHT_SCH,PATROOM1_MULT10_FLR_4,20.90,1.1,157.401,7.530,139.963,0.000,0.700,0.200,0.100,1.000,General,78.700,141.661
 Lights Internal Gains Nominal, PATROOM2_FLR_3_LIGHTS,CRITICAL_LIGHT_SCH,PATROOM2_FLR_3,34.84,1.9,262.335,7.530,139.963,0.000,0.700,0.200,0.100,1.000,General,131.167,236.101
 Lights Internal Gains Nominal, PATROOM2_FLR_4_LIGHTS,CRITICAL_LIGHT_SCH,PATROOM2_FLR_4,34.84,1.9,262.335,7.530,139.963,0.000,0.700,0.200,0.100,1.000,General,131.167,236.101
 Lights Internal Gains Nominal, PATROOM3_MULT10_FLR_3_LIGHTS,CRITICAL_LIGHT_SCH,PATROOM3_MULT10_FLR_3,20.21,1.1,152.168,7.530,139.963,0.000,0.700,0.200,0.100,1.000,General,76.084,136.951
 Lights Internal Gains Nominal, PATROOM3_MULT10_FLR_4_LIGHTS,CRITICAL_LIGHT_SCH,PATROOM3_MULT10_FLR_4,20.21,1.1,152.168,7.530,139.963,0.000,0.700,0.200,0.100,1.000,General,76.084,136.951
 Lights Internal Gains Nominal, PATROOM4_FLR_3_LIGHTS,CRITICAL_LIGHT_SCH,PATROOM4_FLR_3,34.84,1.9,262.335,7.530,139.963,0.000,0.700,0.200,0.100,1.000,General,131.167,236.101
 Lights Internal Gains Nominal, PATROOM4_FLR_4_LIGHTS,CRITICAL_LIGHT_SCH,PATROOM4_FLR_4,34.84,1.9,262.335,7.530,139.963,0.000,0.700,0.200,0.100,1.000,General,131.167,236.101
 Lights Internal Gains Nominal, PATROOM5_MULT10_FLR_3_LIGHTS,CRITICAL_LIGHT_SCH,PATROOM5_MULT10_FLR_3,20.90,1.1,157.401,7.530,139.963,0.000,0.700,0.200,0.100,1.000,General,78.700,141.661
 Lights Internal Gains Nominal, PATROOM5_MULT10_FLR_4_LIGHTS,CRITICAL_LIGHT_SCH,PATROOM5_MULT10_FLR_4,20.90,1.1,157.401,7.530,139.963,0.000,0.700,0.200,0.100,1.000,General,78.700,141.661
 Lights Internal Gains Nominal, PATROOM6_FLR_3_LIGHTS,CRITICAL_LIGHT_SCH,PATROOM6_FLR_3,27.87,1.5,209.868,7.530,139.963,0.000,0.700,0.200,0.100,1.000,General,104.934,188.881
 Lights Internal Gains Nominal, PATROOM6_FLR_4_LIGHTS,CRITICAL_LIGHT_SCH,PATROOM6_FLR_4,27.87,1.5,209.868,7.530,139.963,0.000,0.700,0.200,0.100,1.000,General,104.934,188.881
 Lights Internal Gains Nominal, PATROOM7_MULT10_FLR_3_LIGHTS,CRITICAL_LIGHT_SCH,PATROOM7_MULT10_FLR_3,20.21,1.1,152.168,7.530,139.963,0.000,0.700,0.200,0.100,1.000,General,76.084,136.951
 Lights Internal Gains Nominal, PATROOM7_MULT10_FLR_4_LIGHTS,CRITICAL_LIGHT_SCH,PATROOM7_MULT10_FLR_4,20.21,1.1,152.168,7.530,139.963,0.000,0.700,0.200,0.100,1.000,General,76.084,136.951
 Lights Internal Gains Nominal, PATROOM8_FLR_3_LIGHTS,CRITICAL_LIGHT_SCH,PATROOM8_FLR_3,27.87,1.5,209.868,7.530,139.963,0.000,0.700,0.200,0.100,1.000,General,104.934,188.881
 Lights Internal Gains Nominal, PATROOM8_FLR_4_LIGHTS,CRITICAL_LIGHT_SCH,PATROOM8_FLR_4,27.87,1.5,209.868,7.530,139.963,0.000,0.700,0.200,0.100,1.000,General,104.934,188.881
 Lights Internal Gains Nominal, PHYSTHERAPY_FLR_3_LIGHTS,ADMIN_LIGHT_SCH,PHYSTHERAPY_FLR_3,487.74,26.2,4721.332,9.680,179.926,0.000,0.700,0.200,0.100,1.000,General,236.067,4249.199
 Lights Internal Gains Nominal, RADIOLOGY_FLR_4_LIGHTS,ADMIN_LIGHT_SCH,RADIOLOGY_FLR_4,487.74,26.2,2097.286,4.300,79.926,0.000,0.700,0.200,0.100,1.000,General,104.864,1887.558
! <ElectricEquipment Internal Gains Nominal>,Name,Schedule Name,Zone Name,Zone Floor Area {m2},# Zone Occupants,Equipment Level {W},Equipment/Floor Area {W/m2},Equipment per person {W/person},Fraction Latent,Fraction Radiant,Fraction Lost,Fraction Convected,End-Use SubCategory,Nominal Minimum Equipment Level {W},Nominal Maximum Equipment Level {W}
 ElectricEquipment Internal Gains Nominal, BASEMENT_MISCPLUG_EQUIP,ADMIN_EQUIP_SCH,BASEMENT,3739.35,100.6,30176.533,8.070,300.000,0.000,0.500,0.000,0.500,MiscPlug,9052.960,30176.533
 ElectricEquipment Internal Gains Nominal, DINING_FLR_5_MISCPLUG_EQUIP,ADMIN_EQUIP_SCH,DINING_FLR_5,696.77,75.0,7497.275,10.760,100.000,0.000,0.500,0.000,0.500,MiscPlug,2249.183,7497.275
 ElectricEquipment Internal Gains Nominal, ER_EXAM1_MULT4_FLR_1_MISCPLUG_EQUIP,CRITICAL_EQUIP_SCH,ER_EXAM1_MULT4_FLR_1,27.87,6.0,447.049,16.040,74.605,0.000,0.500,0.000,0.500,MiscPlug,134.115,447.049
 ElectricEquipment Internal Gains Nominal, ER_EXAM3_MULT4_FLR_1_MISCPLUG_EQUIP,CRITICAL_EQUIP_SCH,ER_EXAM3_MULT4_FLR_1,27.87,6.0,447.049,16.040,74.605,0.000,0.500,0.000,0.500,MiscPlug,134.115,447.049
 ElectricEquipment Internal Gains Nominal, ER_NURSESTN_LOBBY_FLR_1_MISCPLUG_EQUIP,ADMIN_EQUIP_SCH,ER_NURSESTN_LOBBY_FLR_1,1235.61,17.7,18076.981,14.630,1023.077,0.000,0.500,0.000,0.500,MiscPlug,5423.094,18076.981
 ElectricEquipment Internal Gains Nominal, ER_TRAUMA1_FLR_1_MISCPLUG_EQUIP,CRITICAL_EQUIP_SCH,ER_TRAUMA1_FLR_1,27.87,6.0,1199.564,43.040,200.188,0.000,0.500,0.000,0.500,MiscPlug,359.869,1199.564
 ElectricEquipment Internal Gains Nominal, ER_TRAUMA2_FLR_1_MISCPLUG_EQUIP,CRITICAL_EQUIP_SCH,ER_TRAUMA2_FLR_1,27.87,6.0,1199.564,43.040,200.188,0.000,0.500,0.000,0.500,MiscPlug,359.869,1199.564
 ElectricEquipment Internal Gains Nominal, ER_TRIAGE_MULT4_FLR_1_MISCPLUG_EQUIP,CRITICAL_EQUIP_SCH,ER_TRIAGE_MULT4_FLR_1,27.87,6.0,809.650,29.050,135.117,0.000,0.500,0.000,0.500,MiscPlug,242.895,809.650
 ElectricEquipment Internal Gains Nominal, ICU_FLR_2_MISCPLUG_EQUIP,CRITICAL_EQUIP_SCH,ICU_FLR_2,617.96,33.2,19947.893,32.280,600.001,0.000,0.500,0.000,0.500,MiscPlug,5984.368,19947.893
 ElectricEquipment Internal Gains Nominal, ICU_NURSESTN_LOBBY_FLR_2_MISCPLUG_EQUIP,ADMIN_EQUIP_SCH,ICU_NURSESTN_LOBBY_FLR_2,668.77,9.6,14391.883,21.520,1504.896,0.000,0.500,0.000,0.500,MiscPlug,4317.565,14391.883
 ElectricEquipment Internal Gains Nominal, IC_PATROOM1_MULT5_FLR_2_MISCPLUG_EQUIP,CRITICAL_EQUIP_SCH,IC_PATROOM1_MULT5_FLR_2,20.90,1.1,674.755,32.280,600.001,0.000,0.500,0.000,0.500,MiscPlug,202.426,674.755
 ElectricEquipment Internal Gains Nominal, IC_PATROOM2_FLR_2_MISCPLUG_EQUIP,CRITICAL_EQUIP_SCH,IC_PATROOM2_FLR_2,27.87,1.5,899.673,32.280,600.001,0.000,0.500,0.000,0.500,MiscPlug,269.902,899.673
 ElectricEquipment Internal Gains Nominal, IC_PATROOM3_MULT6_FLR_2_MISCPLUG_EQUIP,CRITICAL_EQUIP_SCH,IC_PATROOM3_MULT6_FLR_2,20.90,1.1,674.755,32.280,600.001,0.000,0.500,0.000,0.500,MiscPlug,202.426,674.755
 ElectricEquipment Internal Gains Nominal, KITCHEN_FLR_5_EXHFAN_EQUIP,KITCHEN_EXHAUST_SCH,KITCHEN_FLR_5,929.03,50.0,925.000,0.996,18.507,0.000,0.000,1.000,0.000,KitchenExhFan,0.000,925.000
 ElectricEquipment Internal Gains Nominal, KITCHEN_FLR_5_MISCELEC_EQUIP,KITCHEN_ELEC_EQUIP_SCH,KITCHEN_FLR_5,929.03,50.0,74972.753,80.700,1500.003,0.200,0.500,0.100,0.200,MiscElec,0.000,26240.464
 ElectricEquipment Internal Gains Nominal, LAB_FLR_3_MISCPLUG_EQUIP,ADMIN_EQUIP_SCH,LAB_FLR_3,264.77,14.2,11395.858,43.040,800.002,0.000,0.500,0.000,0.500,MiscPlug,3418.758,11395.858
 ElectricEquipment Internal Gains Nominal, LAB_FLR_4_MISCPLUG_EQUIP,ADMIN_EQUIP_SCH,LAB_FLR_4,264.77,14.2,11395.858,43.040,800.002,0.000,0.500,0.000,0.500,MiscPlug,3418.758,11395.858
 ElectricEquipment Internal Gains Nominal, LOBBY_RECORDS_FLR_1_MISCPLUG_EQUIP,ADMIN_EQUIP_SCH,LOBBY_RECORDS_FLR_1,1474.81,21.1,1592.795,1.080,75.525,0.000,0.500,0.000,0.500,MiscPlug,477.839,1592.795
 ElectricEquipment Internal Gains Nominal, NURSESTN_LOBBY_FLR_3_MISCPLUG_EQUIP,ADMIN_EQUIP_SCH,NURSESTN_LOBBY_FLR_3,905.80,13.0,10135.954,11.190,782.518,0.000,0.500,0.000,0.500,MiscPlug,3040.786,10135.954
 ElectricEquipment Internal Gains Nominal, NURSESTN_LOBBY_FLR_4_MISCPLUG_EQUIP,ADMIN_EQUIP_SCH,NURSESTN_LOBBY_FLR_4,905.80,13.0,10135.954,11.190,782.518,0.000,0.500,0.000,0.500,MiscPlug,3040.786,10135.954
 ElectricEquipment Internal Gains Nominal, NURSESTN_LOBBY_FLR_5_MISCPLUG_EQUIP,ADMIN_EQUIP_SCH,NURSESTN_LOBBY_FLR_5,1040.51,14.9,11643.352,11.190,782.518,0.000,0.500,0.000,0.500,MiscPlug,3493.006,11643.352
 ElectricEquipment Internal Gains Nominal, OR1_FLR_2_MISCPLUG_EQUIP,CRITICAL_EQUIP_SCH,OR1_FLR_2,55.74,3.0,2399.128,43.040,800.002,0.000,0.500,0.000,0.500,MiscPlug,719.738,2399.128
 ElectricEquipment Internal Gains Nominal, OR2_MULT5_FLR_2_MISCPLUG_EQUIP,CRITICAL_EQUIP_SCH,OR2_MULT5_FLR_2,55.74,3.0,2399.128,43.040,800.002,0.000,0.500,0.000,0.500,MiscPlug,719.738,2399.128
 ElectricEquipment Internal Gains Nominal, OR3_FLR_2_MISCPLUG_EQUIP,CRITICAL_EQUIP_SCH,OR3_FLR_2,55.74,3.0,2399.128,43.040,800.002,0.000,0.500,0.000,0.500,MiscPlug,719.738,2399.128
 ElectricEquipment Internal Gains Nominal, OR4_FLR_2_MISCPLUG_EQUIP,CRITICAL_EQUIP_SCH,OR4_FLR_2,222.97,12.0,9596.512,43.040,800.002,0.000,0.500,0.000,0.500,MiscPlug,2878.954,9596.512
 ElectricEquipment Internal Gains Nominal, OR_NURSESTN_LOBBY_FLR_2_MISCPLUG_EQUIP,ADMIN_EQUIP_SCH,OR_NURSESTN_LOBBY_FLR_2,1012.64,14.5,11331.477,11.190,782.518,0.000,0.500,0.000,0.500,MiscPlug,3399.443,11331.477
 ElectricEquipment Internal Gains Nominal, OFFICE1_FLR_5_MISCPLUG_EQUIP,ADMIN_EQUIP_SCH,OFFICE1_FLR_5,69.70,5.2,749.924,10.760,142.895,0.000,0.500,0.000,0.500,MiscPlug,224.977,749.924
 ElectricEquipment Internal Gains Nominal, OFFICE1_MULT4_FLR_1_MISCPLUG_EQUIP,ADMIN_EQUIP_SCH,OFFICE1_MULT4_FLR_1,13.94,1.0,149.946,10.760,142.895,0.000,0.500,0.000,0.500,MiscPlug,44.984,149.946
 ElectricEquipment Internal Gains Nominal, OFFICE2_MULT5_FLR_5_MISCPLUG_EQUIP,ADMIN_EQUIP_SCH,OFFICE2_MULT5_FLR_5,69.68,5.2,749.728,10.760,142.895,0.000,0.500,0.000,0.500,MiscPlug,224.918,749.728
 ElectricEquipment Internal Gains Nominal, OFFICE3_FLR_5_MISCPLUG_EQUIP,ADMIN_EQUIP_SCH,OFFICE3_FLR_5,69.68,5.2,749.728,10.760,142.895,0.000,0.500,0.000,0.500,MiscPlug,224.918,749.728
 ElectricEquipment Internal Gains Nominal, OFFICE4_MULT6_FLR_5_MISCPLUG_EQUIP,ADMIN_EQUIP_SCH,OFFICE4_MULT6_FLR_5,13.94,1.0,149.946,10.760,142.895,0.000,0.500,0.000,0.500,MiscPlug,44.984,149.946
 ElectricEquipment Internal Gains Nominal, PATROOM1_MULT10_FLR_3_MISCPLUG_EQUIP,CRITICAL_EQUIP_SCH,PATROOM1_MULT10_FLR_3,20.90,1.1,449.837,21.520,400.001,0.000,0.500,0.000,0.500,MiscPlug,134.951,449.837
 ElectricEquipment Internal Gains Nominal, PATROOM1_MULT10_FLR_4_MISCPLUG_EQUIP,CRITICAL_EQUIP_SCH,PATROOM1_MULT10_FLR_4,20.90,1.1,449.837,21.520,400.001,0.000,0.500,0.000,0.500,MiscPlug,134.951,449.837
 ElectricEquipment Internal Gains Nominal, PATROOM2_FLR_3_MISCPLUG_EQUIP,CRITICAL_EQUIP_SCH,PATROOM2_FLR_3,34.84,1.9,749.728,21.520,400.001,0.000,0.500,0.000,0.500,MiscPlug,224.918,749.728
 ElectricEquipment Internal Gains Nominal, PATROOM2_FLR_4_MISCPLUG_EQUIP,CRITICAL_EQUIP_SCH,PATROOM2_FLR_4,34.84,1.9,749.728,21.520,400.001,0.000,0.500,0.000,0.500,MiscPlug,224.918,749.728
 ElectricEquipment Internal Gains Nominal, PATROOM3_MULT10_FLR_3_MISCPLUG_EQUIP,CRITICAL_EQUIP_SCH,PATROOM3_MULT10_FLR_3,20.21,1.1,434.881,21.520,400.001,0.000,0.500,0.000,0.500,MiscPlug,130.464,434.881
 ElectricEquipment Internal Gains Nominal, PATROOM3_MULT10_FLR_4_MISCPLUG_EQUIP,CRITICAL_EQUIP_SCH,PATROOM3_MULT10_FLR_4,20.21,1.1,434.881,21.520,400.001,0.000,0.500,0.000,0.500,MiscPlug,130.464,434.881
 ElectricEquipment Internal Gains Nominal, PATROOM4_FLR_3_MISCPLUG_EQUIP,CRITICAL_EQUIP_SCH,PATROOM4_FLR_3,34.84,1.9,749.728,21.520,400.001,0.000,0.500,0.000,0.500,MiscPlug,224.918,749.728
 ElectricEquipment Internal Gains Nominal, PATROOM4_FLR_4_MISCPLUG_EQUIP,CRITICAL_EQUIP_SCH,PATROOM4_FLR_4,34.84,1.9,749.728,21.520,400.001,0.000,0.500,0.000,0.500,MiscPlug,224.918,749.728
 ElectricEquipment Internal Gains Nominal, PATROOM5_MULT10_FLR_3_MISCPLUG_EQUIP,CRITICAL_EQUIP_SCH,PATROOM5_MULT10_FLR_3,20.90,1.1,449.837,21.520,400.001,0.000,0.500,0.000,0.500,MiscPlug,134.951,449.837
 ElectricEquipment Internal Gains Nominal, PATROOM5_MULT10_FLR_4_MISCPLUG_EQUIP,CRITICAL_EQUIP_SCH,PATROOM5_MULT10_FLR_4,20.90,1.1,449.837,21.520,400.001,0.000,0.500,0.000,0.500,MiscPlug,134.951,449.837
 ElectricEquipment Internal Gains Nominal, PATROOM6_FLR_3_MISCPLUG_EQUIP,CRITICAL_EQUIP_SCH,PATROOM6_FLR_3,27.87,1.5,599.782,21.520,400.001,0.000,0.500,0.000,0.500,MiscPlug,179.935,599.782
 ElectricEquipment Internal Gains Nominal, PATROOM6_FLR_4_MISCPLUG_EQUIP,CRITICAL_EQUIP_SCH,PATROOM6_FLR_4,27.87,1.5,599.782,21.520,400.001,0.000,0.500,0.000,0.500,MiscPlug,179.935,599.782
 ElectricEquipment Internal Gains Nominal, PATROOM7_MULT10_FLR_3_MISCPLUG_EQUIP,CRITICAL_EQUIP_SCH,PATROOM7_MULT10_FLR_3,20.21,1.1,434.881,21.520,400.001,0.000,0.500,0.000,0.500,MiscPlug,130.464,434.881
 ElectricEquipment Internal Gains Nominal, PATROOM7_MULT10_FLR_4_MISCPLUG_EQUIP,CRITICAL_EQUIP_SCH,PATROOM7_MULT10_FLR_4,20.21,1.1,434.881,21.520,400.001,0.000,0.500,0.000,0.500,MiscPlug,130.464,434.881
 ElectricEquipment Internal Gains Nominal, PATROOM8_FLR_3_MISCPLUG_EQUIP,CRITICAL_EQUIP_SCH,PATROOM8_FLR_3,27.87,1.5,599.782,21.520,400.001,0.000,0.500,0.000,0.500,MiscPlug,179.935,599.782
 ElectricEquipment Internal Gains Nominal, PATROOM8_FLR_4_MISCPLUG_EQUIP,CRITICAL_EQUIP_SCH,PATROOM8_FLR_4,27.87,1.5,599.782,21.520,400.001,0.000,0.500,0.000,0.500,MiscPlug,179.935,599.782
 ElectricEquipment Internal Gains Nominal, PHYSTHERAPY_FLR_3_MISCPLUG_EQUIP,ADMIN_EQUIP_SCH,PHYSTHERAPY_FLR_3,487.74,26.2,7872.139,16.140,300.001,0.000,0.500,0.000,0.500,MiscPlug,2361.642,7872.139
 ElectricEquipment Internal Gains Nominal, RADIOLOGY_FLR_4_MISCPLUG_EQUIP,ADMIN_EQUIP_SCH,RADIOLOGY_FLR_4,487.74,26.2,25889.290,53.080,986.619,0.000,0.500,0.000,0.500,MiscPlug,7766.787,25889.290
! <GasEquipment Internal Gains Nominal>,Name,Schedule Name,Zone Name,Zone Floor Area {m2},# Zone Occupants,Equipment Level {W},Equipment/Floor Area {W/m2},Equipment per person {W/person},Fraction Latent,Fraction Radiant,Fraction Lost,Fraction Convected,End-Use SubCategory,Nominal Minimum Equipment Level {W},Nominal Maximum Equipment Level {W}
 GasEquipment Internal Gains Nominal, KITCHEN_FLR_5_MISCGAS_EQUIP,KITCHEN_GAS_EQUIP_SCH,KITCHEN_FLR_5,929.03,50.0,283233.498,304.870,5666.741,0.100,0.200,0.700,0.000,MiscGas,0.000,84970.049
! <Shadowing/Sun Position Calculations Annual Simulations>, Calculation Method, Value {days}, Allowable Number Figures in Shadow Overlap {}, Polygon Clipping Algorithm, Sky Diffuse Modeling Algorithm
Shadowing/Sun Position Calculations Annual Simulations,AverageOverDaysInFrequency,7,15000,SutherlandHodgman,SimpleSkyDiffuseModeling,InternalCalculation,No
! <#Refrigeration Compressor Racks>,Number of Refrigeration Compressor Racks
! <Refrigeration Compressor Rack>,Compressor Rack Name, # Refrigerated Cases Connected,# WalkIn Coolers Connected, Heat Rejection Location, Condenser Type, COP
!  <Refrigeration Case>,Refrigeration Case Number, Refrigeration Case Name,Zone Name,Zone Node #,Zone Node Name,Capacity (W/m),LHR,Temperature (C),Length (m),Fan (W/m),Installed Lighting (W/m),Anti-Sweat (W/m),Defrost (W/m)
#Refrigeration Compressor Racks, 2
 Refrigeration Compressor Rack,RACK1,1,0,Outdoors,Air-Cooled,1.500
   Refrigeration Case,1,KITCHEN_FLR_5_CASE:1_WALKINFREEZER,KITCHEN_FLR_5,368,KITCHEN_FLR_5 AIR NODE,734.0,0.10,-23.0,11.0,69.0,33.0,0.0,364.0
 Refrigeration Compressor Rack,RACK2,1,0,Outdoors,Air-Cooled,3.000
   Refrigeration Case,2,KITCHEN_FLR_5_CASE:2_SELFCONTAINEDDISPLAYCASE,KITCHEN_FLR_5,368,KITCHEN_FLR_5 AIR NODE,886.5,8.00E-002,2.0,8.9,67.0,40.0,0.0,0.0
! <Water Heater Information>,Type,Name,Volume {m3},Maximum Capacity {W},Standard Rated Recovery Efficiency, Standard Rated Energy Factor
! <ZoneInfiltration Airflow Stats Nominal>,Name,Schedule Name,Zone Name, Zone Floor Area {m2}, # Zone Occupants,Design Volume Flow Rate {m3/s},Volume Flow Rate/Floor Area {m3/s/m2},Volume Flow Rate/Exterior Surface Area {m3/s/m2},ACH - Air Changes per Hour,Equation A - Constant Term Coefficient {},Equation B - Temperature Term Coefficient {1/C},Equation C - Velocity Term Coefficient {s/m}, Equation D - Velocity Squared Term Coefficient {s2/m2}
 ZoneInfiltration Airflow Stats Nominal, CORRIDOR_FLR_1_INFILTRATION,INFIL_QUARTER_ON_SCH,CORRIDOR_FLR_1,569.03,6.1,2.750E-002,4.833E-005,3.020E-004,4.076E-002,1.000,0.000,0.000,0.000
 ZoneInfiltration Airflow Stats Nominal, CORRIDOR_FLR_2_INFILTRATION,INFIL_QUARTER_ON_SCH,CORRIDOR_FLR_2,569.03,6.1,2.750E-002,4.833E-005,3.020E-004,4.076E-002,1.000,0.000,0.000,0.000
 ZoneInfiltration Airflow Stats Nominal, CORRIDOR_FLR_5_INFILTRATION,INFIL_QUARTER_ON_SCH,CORRIDOR_FLR_5,501.68,5.4,2.357E-002,4.699E-005,4.066E-005,3.963E-002,1.000,0.000,0.000,0.000
 ZoneInfiltration Airflow Stats Nominal, CORRIDOR_NW_FLR_3_INFILTRATION,INFIL_QUARTER_ON_SCH,CORRIDOR_NW_FLR_3,566.71,6.1,1.375E-002,2.427E-005,3.020E-004,2.047E-002,1.000,0.000,0.000,0.000
 ZoneInfiltration Airflow Stats Nominal, CORRIDOR_NW_FLR_4_INFILTRATION,INFIL_QUARTER_ON_SCH,CORRIDOR_NW_FLR_4,566.71,6.1,1.375E-002,2.427E-005,3.020E-004,2.047E-002,1.000,0.000,0.000,0.000
 ZoneInfiltration Airflow Stats Nominal, CORRIDOR_SE_FLR_3_INFILTRATION,INFIL_QUARTER_ON_SCH,CORRIDOR_SE_FLR_3,566.71,6.1,1.375E-002,2.427E-005,3.020E-004,2.047E-002,1.000,0.000,0.000,0.000
 ZoneInfiltration Airflow Stats Nominal, CORRIDOR_SE_FLR_4_INFILTRATION,INFIL_QUARTER_ON_SCH,CORRIDOR_SE_FLR_4,566.71,6.1,1.375E-002,2.427E-005,3.020E-004,2.047E-002,1.000,0.000,0.000,0.000
 ZoneInfiltration Airflow Stats Nominal, DINING_FLR_5_INFILTRATION,INFIL_QUARTER_ON_SCH,DINING_FLR_5,696.77,75.0,6.876E-002,9.868E-005,7.438E-005,8.323E-002,1.000,0.000,0.000,0.000
 ZoneInfiltration Airflow Stats Nominal, ER_EXAM1_MULT4_FLR_1_INFILTRATION,INFIL_QUARTER_ON_SCH,ER_EXAM1_MULT4_FLR_1,27.87,6.0,7.858E-003,2.819E-004,3.020E-004,0.238,1.000,0.000,0.000,0.000
 ZoneInfiltration Airflow Stats Nominal, ER_EXAM3_MULT4_FLR_1_INFILTRATION,INFIL_QUARTER_ON_SCH,ER_EXAM3_MULT4_FLR_1,27.87,6.0,5.893E-003,2.115E-004,3.020E-004,0.178,1.000,0.000,0.000,0.000
 ZoneInfiltration Airflow Stats Nominal, ER_NURSESTN_LOBBY_FLR_1_INFILTRATION,INFIL_QUARTER_ON_SCH,ER_NURSESTN_LOBBY_FLR_1,1235.61,17.7,3.340E-002,2.703E-005,3.020E-004,2.280E-002,1.000,0.000,0.000,0.000
 ZoneInfiltration Airflow Stats Nominal, ER_TRAUMA1_FLR_1_INFILTRATION,INFIL_QUARTER_ON_SCH,ER_TRAUMA1_FLR_1,27.87,6.0,1.375E-002,4.934E-004,3.020E-004,0.416,1.000,0.000,0.000,0.000
 ZoneInfiltration Airflow Stats Nominal, ER_TRAUMA2_FLR_1_INFILTRATION,INFIL_QUARTER_ON_SCH,ER_TRAUMA2_FLR_1,27.87,6.0,1.375E-002,4.934E-004,3.020E-004,0.416,1.000,0.000,0.000,0.000
 ZoneInfiltration Airflow Stats Nominal, ER_TRIAGE_MULT4_FLR_1_INFILTRATION,INFIL_QUARTER_ON_SCH,ER_TRIAGE_MULT4_FLR_1,27.87,6.0,7.858E-003,2.819E-004,3.020E-004,0.238,1.000,0.000,0.000,0.000
 ZoneInfiltration Airflow Stats Nominal, ICU_FLR_2_INFILTRATION,INFIL_QUARTER_ON_SCH,ICU_FLR_2,617.96,33.2,6.483E-002,1.049E-004,3.020E-004,8.849E-002,1.000,0.000,0.000,0.000
 ZoneInfiltration Airflow Stats Nominal, IC_PATROOM1_MULT5_FLR_2_INFILTRATION,INFIL_QUARTER_ON_SCH,IC_PATROOM1_MULT5_FLR_2,20.90,1.1,5.893E-003,2.819E-004,3.020E-004,0.238,1.000,0.000,0.000,0.000
 ZoneInfiltration Airflow Stats Nominal, IC_PATROOM2_FLR_2_INFILTRATION,INFIL_QUARTER_ON_SCH,IC_PATROOM2_FLR_2,27.87,1.5,1.375E-002,4.934E-004,3.020E-004,0.416,1.000,0.000,0.000,0.000
 ZoneInfiltration Airflow Stats Nominal, IC_PATROOM3_MULT6_FLR_2_INFILTRATION,INFIL_QUARTER_ON_SCH,IC_PATROOM3_MULT6_FLR_2,20.90,1.1,5.893E-003,2.819E-004,3.020E-004,0.238,1.000,0.000,0.000,0.000
 ZoneInfiltration Airflow Stats Nominal, KITCHEN_FLR_5_INFILTRATION,INFIL_QUARTER_ON_SCH,KITCHEN_FLR_5,929.03,50.0,7.858E-002,8.458E-005,6.608E-005,7.134E-002,1.000,0.000,0.000,0.000
 ZoneInfiltration Airflow Stats Nominal, LOBBY_RECORDS_FLR_1_INFILTRATION,INFIL_QUARTER_ON_SCH,LOBBY_RECORDS_FLR_1,1474.81,21.1,0.124,8.391E-005,3.020E-004,7.077E-002,1.000,0.000,0.000,0.000
 ZoneInfiltration Airflow Stats Nominal, NURSESTN_LOBBY_FLR_5_INFILTRATION,INFIL_QUARTER_ON_SCH,NURSESTN_LOBBY_FLR_5,1040.51,14.9,3.143E-002,3.021E-005,2.746E-005,2.548E-002,1.000,0.000,0.000,0.000
 ZoneInfiltration Airflow Stats Nominal, OR1_FLR_2_INFILTRATION,INFIL_QUARTER_ON_SCH,OR1_FLR_2,55.74,3.0,1.964E-002,3.524E-004,3.020E-004,0.297,1.000,0.000,0.000,0.000
 ZoneInfiltration Airflow Stats Nominal, OR2_MULT5_FLR_2_INFILTRATION,INFIL_QUARTER_ON_SCH,OR2_MULT5_FLR_2,55.74,3.0,7.858E-003,1.410E-004,3.020E-004,0.119,1.000,0.000,0.000,0.000
 ZoneInfiltration Airflow Stats Nominal, OR3_FLR_2_INFILTRATION,INFIL_QUARTER_ON_SCH,OR3_FLR_2,55.74,3.0,1.179E-002,2.115E-004,3.020E-004,0.178,1.000,0.000,0.000,0.000
 ZoneInfiltration Airflow Stats Nominal, OR_NURSESTN_LOBBY_FLR_2_INFILTRATION,INFIL_QUARTER_ON_SCH,OR_NURSESTN_LOBBY_FLR_2,1012.64,14.5,5.501E-002,5.432E-005,3.020E-004,4.581E-002,1.000,0.000,0.000,0.000
 ZoneInfiltration Airflow Stats Nominal, OFFICE1_FLR_5_INFILTRATION,INFIL_QUARTER_ON_SCH,OFFICE1_FLR_5,69.70,5.2,2.161E-002,3.101E-004,1.530E-004,0.262,1.000,0.000,0.000,0.000
 ZoneInfiltration Airflow Stats Nominal, OFFICE1_MULT4_FLR_1_INFILTRATION,INFIL_QUARTER_ON_SCH,OFFICE1_MULT4_FLR_1,13.94,1.0,3.929E-003,2.819E-004,3.020E-004,0.238,1.000,0.000,0.000,0.000
 ZoneInfiltration Airflow Stats Nominal, OFFICE2_MULT5_FLR_5_INFILTRATION,INFIL_QUARTER_ON_SCH,OFFICE2_MULT5_FLR_5,69.68,5.2,9.820E-003,1.409E-004,9.609E-005,0.119,1.000,0.000,0.000,0.000
 ZoneInfiltration Airflow Stats Nominal, OFFICE3_FLR_5_INFILTRATION,INFIL_QUARTER_ON_SCH,OFFICE3_FLR_5,69.68,5.2,2.161E-002,3.101E-004,1.530E-004,0.262,1.000,0.000,0.000,0.000
 ZoneInfiltration Airflow Stats Nominal, OFFICE4_MULT6_FLR_5_INFILTRATION,INFIL_QUARTER_ON_SCH,OFFICE4_MULT6_FLR_5,13.94,1.0,3.929E-003,2.819E-004,1.458E-004,0.238,1.000,0.000,0.000,0.000
 ZoneInfiltration Airflow Stats Nominal, PATROOM1_MULT10_FLR_3_INFILTRATION,INFIL_QUARTER_ON_SCH,PATROOM1_MULT10_FLR_3,20.90,1.1,5.893E-003,2.819E-004,3.020E-004,0.238,1.000,0.000,0.000,0.000
 ZoneInfiltration Airflow Stats Nominal, PATROOM1_MULT10_FLR_4_INFILTRATION,INFIL_QUARTER_ON_SCH,PATROOM1_MULT10_FLR_4,20.90,1.1,5.893E-003,2.819E-004,3.020E-004,0.238,1.000,0.000,0.000,0.000
 ZoneInfiltration Airflow Stats Nominal, PATROOM2_FLR_3_INFILTRATION,INFIL_QUARTER_ON_SCH,PATROOM2_FLR_3,34.84,1.9,1.572E-002,4.511E-004,3.020E-004,0.380,1.000,0.000,0.000,0.000
 ZoneInfiltration Airflow Stats Nominal, PATROOM2_FLR_4_INFILTRATION,INFIL_QUARTER_ON_SCH,PATROOM2_FLR_4,34.84,1.9,1.572E-002,4.511E-004,3.020E-004,0.380,1.000,0.000,0.000,0.000
 ZoneInfiltration Airflow Stats Nominal, PATROOM3_MULT10_FLR_3_INFILTRATION,INFIL_QUARTER_ON_SCH,PATROOM3_MULT10_FLR_3,20.21,1.1,5.697E-003,2.819E-004,3.020E-004,0.238,1.000,0.000,0.000,0.000
 ZoneInfiltration Airflow Stats Nominal, PATROOM3_MULT10_FLR_4_INFILTRATION,INFIL_QUARTER_ON_SCH,PATROOM3_MULT10_FLR_4,20.21,1.1,5.697E-003,2.819E-004,3.020E-004,0.238,1.000,0.000,0.000,0.000
 ZoneInfiltration Airflow Stats Nominal, PATROOM4_FLR_3_INFILTRATION,INFIL_QUARTER_ON_SCH,PATROOM4_FLR_3,34.84,1.9,1.572E-002,4.511E-004,3.020E-004,0.380,1.000,0.000,0.000,0.000
 ZoneInfiltration Airflow Stats Nominal, PATROOM4_FLR_4_INFILTRATION,INFIL_QUARTER_ON_SCH,PATROOM4_FLR_4,34.84,1.9,1.572E-002,4.511E-004,3.020E-004,0.380,1.000,0.000,0.000,0.000
 ZoneInfiltration Airflow Stats Nominal, PATROOM5_MULT10_FLR_3_INFILTRATION,INFIL_QUARTER_ON_SCH,PATROOM5_MULT10_FLR_3,20.90,1.1,5.893E-003,2.819E-004,3.020E-004,0.238,1.000,0.000,0.000,0.000
 ZoneInfiltration Airflow Stats Nominal, PATROOM5_MULT10_FLR_4_INFILTRATION,INFIL_QUARTER_ON_SCH,PATROOM5_MULT10_FLR_4,20.90,1.1,5.893E-003,2.819E-004,3.020E-004,0.238,1.000,0.000,0.000,0.000
 ZoneInfiltration Airflow Stats Nominal, PATROOM6_FLR_3_INFILTRATION,INFIL_QUARTER_ON_SCH,PATROOM6_FLR_3,27.87,1.5,1.375E-002,4.934E-004,3.020E-004,0.416,1.000,0.000,0.000,0.000
 ZoneInfiltration Airflow Stats Nominal, PATROOM6_FLR_4_INFILTRATION,INFIL_QUARTER_ON_SCH,PATROOM6_FLR_4,27.87,1.5,1.375E-002,4.934E-004,3.020E-004,0.416,1.000,0.000,0.000,0.000
 ZoneInfiltration Airflow Stats Nominal, PATROOM7_MULT10_FLR_3_INFILTRATION,INFIL_QUARTER_ON_SCH,PATROOM7_MULT10_FLR_3,20.21,1.1,5.697E-003,2.819E-004,3.020E-004,0.238,1.000,0.000,0.000,0.000
 ZoneInfiltration Airflow Stats Nominal, PATROOM7_MULT10_FLR_4_INFILTRATION,INFIL_QUARTER_ON_SCH,PATROOM7_MULT10_FLR_4,20.21,1.1,5.697E-003,2.819E-004,3.020E-004,0.238,1.000,0.000,0.000,0.000
 ZoneInfiltration Airflow Stats Nominal, PATROOM8_FLR_3_INFILTRATION,INFIL_QUARTER_ON_SCH,PATROOM8_FLR_3,27.87,1.5,1.375E-002,4.934E-004,3.020E-004,0.416,1.000,0.000,0.000,0.000
 ZoneInfiltration Airflow Stats Nominal, PATROOM8_FLR_4_INFILTRATION,INFIL_QUARTER_ON_SCH,PATROOM8_FLR_4,27.87,1.5,1.375E-002,4.934E-004,3.020E-004,0.416,1.000,0.000,0.000,0.000
! <Mixing Airflow Stats Nominal>,Name,Schedule Name,Zone Name, Zone Floor Area {m2}, # Zone Occupants,Design Volume Flow Rate {m3/s},Volume Flow Rate/Floor Area {m3/s/m2},Volume Flow Rate/person Area {m3/s/person},ACH - Air Changes per Hour,From/Source Zone,Delta Temperature {C}
 Mixing Airflow Stats Nominal, KITCHEN_FLR_5 EXHAUST FANMIXING_0,HVACOPERATIONSCHD,KITCHEN_FLR_5,929.03,50.0,0.750,8.073E-004,1.500E-002,0.681,DINING_FLR_5,0.00
! <AirFlow Model>, Simple
 AirFlow Model, Simple
! <RoomAir Model>, Zone Name, Mixing/Mundt/UCSDDV/UCSDCV/UCSDUFI/UCSDUFE/User Defined
RoomAir Model,BASEMENT,Mixing/Well-Stirred
RoomAir Model,CORRIDOR_FLR_1,Mixing/Well-Stirred
RoomAir Model,CORRIDOR_FLR_2,Mixing/Well-Stirred
RoomAir Model,CORRIDOR_FLR_5,Mixing/Well-Stirred
RoomAir Model,CORRIDOR_NW_FLR_3,Mixing/Well-Stirred
RoomAir Model,CORRIDOR_NW_FLR_4,Mixing/Well-Stirred
RoomAir Model,CORRIDOR_SE_FLR_3,Mixing/Well-Stirred
RoomAir Model,CORRIDOR_SE_FLR_4,Mixing/Well-Stirred
RoomAir Model,DINING_FLR_5,Mixing/Well-Stirred
RoomAir Model,ER_EXAM1_MULT4_FLR_1,Mixing/Well-Stirred
RoomAir Model,ER_EXAM3_MULT4_FLR_1,Mixing/Well-Stirred
RoomAir Model,ER_NURSESTN_LOBBY_FLR_1,Mixing/Well-Stirred
RoomAir Model,ER_TRAUMA1_FLR_1,Mixing/Well-Stirred
RoomAir Model,ER_TRAUMA2_FLR_1,Mixing/Well-Stirred
RoomAir Model,ER_TRIAGE_MULT4_FLR_1,Mixing/Well-Stirred
RoomAir Model,ICU_FLR_2,Mixing/Well-Stirred
RoomAir Model,ICU_NURSESTN_LOBBY_FLR_2,Mixing/Well-Stirred
RoomAir Model,IC_PATROOM1_MULT5_FLR_2,Mixing/Well-Stirred
RoomAir Model,IC_PATROOM2_FLR_2,Mixing/Well-Stirred
RoomAir Model,IC_PATROOM3_MULT6_FLR_2,Mixing/Well-Stirred
RoomAir Model,KITCHEN_FLR_5,Mixing/Well-Stirred
RoomAir Model,LAB_FLR_3,Mixing/Well-Stirred
RoomAir Model,LAB_FLR_4,Mixing/Well-Stirred
RoomAir Model,LOBBY_RECORDS_FLR_1,Mixing/Well-Stirred
RoomAir Model,NURSESTN_LOBBY_FLR_3,Mixing/Well-Stirred
RoomAir Model,NURSESTN_LOBBY_FLR_4,Mixing/Well-Stirred
RoomAir Model,NURSESTN_LOBBY_FLR_5,Mixing/Well-Stirred
RoomAir Model,OR1_FLR_2,Mixing/Well-Stirred
RoomAir Model,OR2_MULT5_FLR_2,Mixing/Well-Stirred
RoomAir Model,OR3_FLR_2,Mixing/Well-Stirred
RoomAir Model,OR4_FLR_2,Mixing/Well-Stirred
RoomAir Model,OR_NURSESTN_LOBBY_FLR_2,Mixing/Well-Stirred
RoomAir Model,OFFICE1_FLR_5,Mixing/Well-Stirred
RoomAir Model,OFFICE1_MULT4_FLR_1,Mixing/Well-Stirred
RoomAir Model,OFFICE2_MULT5_FLR_5,Mixing/Well-Stirred
RoomAir Model,OFFICE3_FLR_5,Mixing/Well-Stirred
RoomAir Model,OFFICE4_MULT6_FLR_5,Mixing/Well-Stirred
RoomAir Model,PATROOM1_MULT10_FLR_3,Mixing/Well-Stirred
RoomAir Model,PATROOM1_MULT10_FLR_4,Mixing/Well-Stirred
RoomAir Model,PATROOM2_FLR_3,Mixing/Well-Stirred
RoomAir Model,PATROOM2_FLR_4,Mixing/Well-Stirred
RoomAir Model,PATROOM3_MULT10_FLR_3,Mixing/Well-Stirred
RoomAir Model,PATROOM3_MULT10_FLR_4,Mixing/Well-Stirred
RoomAir Model,PATROOM4_FLR_3,Mixing/Well-Stirred
RoomAir Model,PATROOM4_FLR_4,Mixing/Well-Stirred
RoomAir Model,PATROOM5_MULT10_FLR_3,Mixing/Well-Stirred
RoomAir Model,PATROOM5_MULT10_FLR_4,Mixing/Well-Stirred
RoomAir Model,PATROOM6_FLR_3,Mixing/Well-Stirred
RoomAir Model,PATROOM6_FLR_4,Mixing/Well-Stirred
RoomAir Model,PATROOM7_MULT10_FLR_3,Mixing/Well-Stirred
RoomAir Model,PATROOM7_MULT10_FLR_4,Mixing/Well-Stirred
RoomAir Model,PATROOM8_FLR_3,Mixing/Well-Stirred
RoomAir Model,PATROOM8_FLR_4,Mixing/Well-Stirred
RoomAir Model,PHYSTHERAPY_FLR_3,Mixing/Well-Stirred
RoomAir Model,RADIOLOGY_FLR_4,Mixing/Well-Stirred
! <AirflowNetwork Model:Control>, No Multizone or Distribution/Multizone with Distribution/Multizone without Distribution/Multizone with Distribution only during Fan Operation
AirflowNetwork Model:Control,NoMultizoneOrDistribution
! <Zone Volume Capacitance Multiplier>, Sensible Heat Capacity Multiplier, Moisture Capacity Multiplier, Carbon Dioxide Capacity Multiplier, Generic Contaminant Capacity Multiplier
Zone Volume Capacitance Multiplier,   1.000 ,   1.000,   1.000,   1.000
! <Load Timesteps in Zone Design Calculation Averaging Window>, Value
 Load Timesteps in Zone Design Calculation Averaging Window,    4
! <Heating Sizing Factor Information>, Sizing Factor ID, Value
 Heating Sizing Factor Information, Global,   1.2000    
 Heating Sizing Factor Information, Zone BASEMENT,   1.2000    
 Heating Sizing Factor Information, Zone CORRIDOR_FLR_1,   1.2000    
 Heating Sizing Factor Information, Zone CORRIDOR_FLR_2,   1.2000    
 Heating Sizing Factor Information, Zone CORRIDOR_FLR_5,   1.2000    
 Heating Sizing Factor Information, Zone CORRIDOR_NW_FLR_3,   1.2000    
 Heating Sizing Factor Information, Zone CORRIDOR_NW_FLR_4,   1.2000    
 Heating Sizing Factor Information, Zone CORRIDOR_SE_FLR_3,   1.2000    
 Heating Sizing Factor Information, Zone CORRIDOR_SE_FLR_4,   1.2000    
 Heating Sizing Factor Information, Zone DINING_FLR_5,   1.2000    
 Heating Sizing Factor Information, Zone ER_EXAM1_MULT4_FLR_1,   1.2000    
 Heating Sizing Factor Information, Zone ER_EXAM3_MULT4_FLR_1,   1.2000    
 Heating Sizing Factor Information, Zone ER_NURSESTN_LOBBY_FLR_1,   1.2000    
 Heating Sizing Factor Information, Zone ER_TRAUMA1_FLR_1,   1.2000    
 Heating Sizing Factor Information, Zone ER_TRAUMA2_FLR_1,   1.2000    
 Heating Sizing Factor Information, Zone ER_TRIAGE_MULT4_FLR_1,   1.2000    
 Heating Sizing Factor Information, Zone ICU_FLR_2,   1.2000    
 Heating Sizing Factor Information, Zone ICU_NURSESTN_LOBBY_FLR_2,   1.2000    
 Heating Sizing Factor Information, Zone IC_PATROOM1_MULT5_FLR_2,   1.2000    
 Heating Sizing Factor Information, Zone IC_PATROOM2_FLR_2,   1.2000    
 Heating Sizing Factor Information, Zone IC_PATROOM3_MULT6_FLR_2,   1.2000    
 Heating Sizing Factor Information, Zone KITCHEN_FLR_5,   1.2000    
 Heating Sizing Factor Information, Zone LAB_FLR_3,   1.2000    
 Heating Sizing Factor Information, Zone LAB_FLR_4,   1.2000    
 Heating Sizing Factor Information, Zone LOBBY_RECORDS_FLR_1,   1.2000    
 Heating Sizing Factor Information, Zone NURSESTN_LOBBY_FLR_3,   1.2000    
 Heating Sizing Factor Information, Zone NURSESTN_LOBBY_FLR_4,   1.2000    
 Heating Sizing Factor Information, Zone NURSESTN_LOBBY_FLR_5,   1.2000    
 Heating Sizing Factor Information, Zone OR1_FLR_2,   1.2000    
 Heating Sizing Factor Information, Zone OR2_MULT5_FLR_2,   1.2000    
 Heating Sizing Factor Information, Zone OR3_FLR_2,   1.2000    
 Heating Sizing Factor Information, Zone OR4_FLR_2,   1.2000    
 Heating Sizing Factor Information, Zone OR_NURSESTN_LOBBY_FLR_2,   1.2000    
 Heating Sizing Factor Information, Zone OFFICE1_FLR_5,   1.2000    
 Heating Sizing Factor Information, Zone OFFICE1_MULT4_FLR_1,   1.2000    
 Heating Sizing Factor Information, Zone OFFICE2_MULT5_FLR_5,   1.2000    
 Heating Sizing Factor Information, Zone OFFICE3_FLR_5,   1.2000    
 Heating Sizing Factor Information, Zone OFFICE4_MULT6_FLR_5,   1.2000    
 Heating Sizing Factor Information, Zone PATROOM1_MULT10_FLR_3,   1.2000    
 Heating Sizing Factor Information, Zone PATROOM1_MULT10_FLR_4,   1.2000    
 Heating Sizing Factor Information, Zone PATROOM2_FLR_3,   1.2000    
 Heating Sizing Factor Information, Zone PATROOM2_FLR_4,   1.2000    
 Heating Sizing Factor Information, Zone PATROOM3_MULT10_FLR_3,   1.2000    
 Heating Sizing Factor Information, Zone PATROOM3_MULT10_FLR_4,   1.2000    
 Heating Sizing Factor Information, Zone PATROOM4_FLR_3,   1.2000    
 Heating Sizing Factor Information, Zone PATROOM4_FLR_4,   1.2000    
 Heating Sizing Factor Information, Zone PATROOM5_MULT10_FLR_3,   1.2000    
 Heating Sizing Factor Information, Zone PATROOM5_MULT10_FLR_4,   1.2000    
 Heating Sizing Factor Information, Zone PATROOM6_FLR_3,   1.2000    
 Heating Sizing Factor Information, Zone PATROOM6_FLR_4,   1.2000    
 Heating Sizing Factor Information, Zone PATROOM7_MULT10_FLR_3,   1.2000    
 Heating Sizing Factor Information, Zone PATROOM7_MULT10_FLR_4,   1.2000    
 Heating Sizing Factor Information, Zone PATROOM8_FLR_3,   1.2000    
 Heating Sizing Factor Information, Zone PATROOM8_FLR_4,   1.2000    
 Heating Sizing Factor Information, Zone PHYSTHERAPY_FLR_3,   1.2000    
 Heating Sizing Factor Information, Zone RADIOLOGY_FLR_4,   1.2000    
! <Cooling Sizing Factor Information>, Sizing Factor ID, Value
 Cooling Sizing Factor Information, Global,   1.2000    
 Cooling Sizing Factor Information, Zone BASEMENT,   1.2000    
 Cooling Sizing Factor Information, Zone CORRIDOR_FLR_1,   1.2000    
 Cooling Sizing Factor Information, Zone CORRIDOR_FLR_2,   1.2000    
 Cooling Sizing Factor Information, Zone CORRIDOR_FLR_5,   1.2000    
 Cooling Sizing Factor Information, Zone CORRIDOR_NW_FLR_3,   1.2000    
 Cooling Sizing Factor Information, Zone CORRIDOR_NW_FLR_4,   1.2000    
 Cooling Sizing Factor Information, Zone CORRIDOR_SE_FLR_3,   1.2000    
 Cooling Sizing Factor Information, Zone CORRIDOR_SE_FLR_4,   1.2000    
 Cooling Sizing Factor Information, Zone DINING_FLR_5,   1.2000    
 Cooling Sizing Factor Information, Zone ER_EXAM1_MULT4_FLR_1,   1.2000    
 Cooling Sizing Factor Information, Zone ER_EXAM3_MULT4_FLR_1,   1.2000    
 Cooling Sizing Factor Information, Zone ER_NURSESTN_LOBBY_FLR_1,   1.2000    
 Cooling Sizing Factor Information, Zone ER_TRAUMA1_FLR_1,   1.2000    
 Cooling Sizing Factor Information, Zone ER_TRAUMA2_FLR_1,   1.2000    
 Cooling Sizing Factor Information, Zone ER_TRIAGE_MULT4_FLR_1,   1.2000    
 Cooling Sizing Factor Information, Zone ICU_FLR_2,   1.2000    
[...]
 Component Sizing Information, Coil:Cooling:Water:DetailedGeometry, VAV_1_COOLC, Design Size Total Tube Inside Area [m2], 144.19944
 Component Sizing Information, Coil:Cooling:Water:DetailedGeometry, VAV_1_COOLC, Design Size Tube Outside Surface Area [m2], 147.85092
 Component Sizing Information, Coil:Cooling:Water:DetailedGeometry, VAV_1_COOLC, Design Size Coil Depth [m], 0.15600
Water Cooling Coil Capacity Information,Coil:Cooling:Water:DetailedGeometry,VAV_1_COOLC,765434.39,500230.05,265204.35,0.65
 Component Sizing Information, Coil:Heating:Water, VAV_1_HEATC, Design Size Rated Capacity [W], 173525.77641
 Component Sizing Information, Coil:Heating:Water, VAV_1_HEATC, Design Size Maximum Water Flow Rate [m3/s], 3.73585E-003
 Component Sizing Information, Coil:Heating:Water, VAV_1_HEATC, Design Size U-Factor Times Area Value [W/K], 2551.54746
Water Heating Coil Capacity Information,Coil:Heating:Water,VAV_1_HEATC,132815.32
 Component Sizing Information, Fan:VariableVolume, VAV_1_FAN, Design Size Maximum Flow Rate [m3/s], 24.39926
 Component Sizing Information, Controller:WaterCoil, VAV_1_COOLC_CONTROLLER, Maximum Actuated Flow [m3/s], 2.74479E-002
 Component Sizing Information, Controller:WaterCoil, VAV_1_COOLC_CONTROLLER, Controller Convergence Tolerance, 1.73489E-005
 Component Sizing Information, Controller:WaterCoil, VAV_1_HEATC_CONTROLLER, Maximum Actuated Flow [m3/s], 3.73585E-003
 Component Sizing Information, Controller:OutdoorAir, VAV_2_OA_CONTROLLER, Maximum Outdoor Air Flow Rate [m3/s], 41.29983
 Component Sizing Information, Controller:OutdoorAir, VAV_2_OA_CONTROLLER, Minimum Outdoor Air Flow Rate [m3/s], 9.48834
 Component Sizing Information, Coil:Cooling:Water:DetailedGeometry, VAV_2_COOLC, Design Size Design Coil Load [W], 1343723.85111
 Component Sizing Information, Coil:Cooling:Water:DetailedGeometry, VAV_2_COOLC, Design Size Maximum Water Flow Rate [m3/s], 4.79939E-002
 Component Sizing Information, Coil:Cooling:Water:DetailedGeometry, VAV_2_COOLC, Design Size Number of Tubes per Row, 660.00000
 Component Sizing Information, Coil:Cooling:Water:DetailedGeometry, VAV_2_COOLC, Design Size Fin Diameter [m], 16.56951
 Component Sizing Information, Coil:Cooling:Water:DetailedGeometry, VAV_2_COOLC, Design Size Minimum Airflow Area [m2], 21.76294
 Component Sizing Information, Coil:Cooling:Water:DetailedGeometry, VAV_2_COOLC, Design Size Fin Surface Area [m2], 3882.70568
 Component Sizing Information, Coil:Cooling:Water:DetailedGeometry, VAV_2_COOLC, Design Size Total Tube Inside Area [m2], 251.77680
 Component Sizing Information, Coil:Cooling:Water:DetailedGeometry, VAV_2_COOLC, Design Size Tube Outside Surface Area [m2], 258.15240
 Component Sizing Information, Coil:Cooling:Water:DetailedGeometry, VAV_2_COOLC, Design Size Coil Depth [m], 0.15600
Water Cooling Coil Capacity Information,Coil:Cooling:Water:DetailedGeometry,VAV_2_COOLC,1314169.31,855092.25,459077.07,0.65
 Component Sizing Information, Coil:Heating:Water, VAV_2_HEATC, Design Size Rated Capacity [W], 328697.02650
 Component Sizing Information, Coil:Heating:Water, VAV_2_HEATC, Design Size Maximum Water Flow Rate [m3/s], 7.07655E-003
 Component Sizing Information, Coil:Heating:Water, VAV_2_HEATC, Design Size U-Factor Times Area Value [W/K], 4746.73809
Water Heating Coil Capacity Information,Coil:Heating:Water,VAV_2_HEATC,244916.77
 Component Sizing Information, Fan:VariableVolume, VAV_2_FAN, Design Size Maximum Flow Rate [m3/s], 41.29983
 Component Sizing Information, Controller:WaterCoil, VAV_2_COOLC_CONTROLLER, Maximum Actuated Flow [m3/s], 4.79939E-002
 Component Sizing Information, Controller:WaterCoil, VAV_2_COOLC_CONTROLLER, Controller Convergence Tolerance, 9.92190E-006
 Component Sizing Information, Controller:WaterCoil, VAV_2_HEATC_CONTROLLER, Maximum Actuated Flow [m3/s], 7.07655E-003
Water Heater Information,WaterHeater:Mixed,SWHSYS1 WATER HEATER,3.0000,845000.0,0.232,0.6813
 Component Sizing Information, PlantLoop, COOLSYS1, Maximum Loop Flow Rate [m3/s], 0.10512
 Component Sizing Information, PlantLoop, COOLSYS1, Plant Loop Volume [m3], 12.61386
 Component Sizing Information, Pump:VariableSpeed, COOLSYS1 PUMP, Design Flow Rate [m3/s], 0.10512
 Component Sizing Information, Pump:VariableSpeed, COOLSYS1 PUMP, Design Power Consumption [W], 26855.66565
 Component Sizing Information, Chiller:Electric:ReformulatedEIR, COOLSYS1 CHILLER, Design Size Reference Chilled Water Flow Rate [m3/s], 0.10512
 Component Sizing Information, Chiller:Electric:ReformulatedEIR, COOLSYS1 CHILLER, Design Size Reference Capacity [W], 2964177.10574
 Component Sizing Information, Chiller:Electric:ReformulatedEIR, COOLSYS1 CHILLER, Design Size Reference Condenser Water Flow Rate [m3/s], 0.14611
! <Chiller Standard Rating Information>, Component Type, Component Name, IPLV in SI Units {W/W}, IPLV in IP Units {Btu/W-h}
 Chiller Standard Rating Information, Chiller:Electric:ReformulatedEIR, COOLSYS1 CHILLER, 6.18, 21.08
 Component Sizing Information, PlantLoop, HEATSYS1, Maximum Loop Flow Rate [m3/s], 2.93482E-002
 Component Sizing Information, PlantLoop, HEATSYS1, Plant Loop Volume [m3], 3.52179
 Component Sizing Information, Pump:VariableSpeed, HEATSYS1 PUMP, Design Flow Rate [m3/s], 2.93482E-002
 Component Sizing Information, Pump:VariableSpeed, HEATSYS1 PUMP, Design Power Consumption [W], 7498.09840
 Component Sizing Information, Boiler:HotWater, HEATSYS1 BOILER, Design Size Nominal Capacity [W], 1368505.23629
 Component Sizing Information, Boiler:HotWater, HEATSYS1 BOILER, Design Size Design Water Flow Rate [m3/s], 2.93482E-002
 Component Sizing Information, PlantLoop, SWHSYS1, Maximum Loop Flow Rate [m3/s], 2.88593E-004
 Component Sizing Information, PlantLoop, SWHSYS1, Plant Loop Volume [m3], 3.46312E-002
 Component Sizing Information, Pump:VariableSpeed, SWHSYS1 PUMP, Design Flow Rate [m3/s], 2.88593E-004
 Component Sizing Information, Pump:VariableSpeed, SWHSYS1 PUMP, Design Power Consumption [W], 73.73191
 Component Sizing Information, WaterHeater:Mixed, SWHSYS1 WATER HEATER, Use Side Design Flow Rate [m3/s], 2.88593E-004
 Component Sizing Information, CondenserLoop, TOWERWATERSYS, Maximum Loop Flow Rate [m3/s], 0.14611
 Component Sizing Information, CondenserLoop, TOWERWATERSYS, Condenser Loop Volume [m3], 17.53342
 Component Sizing Information, Pump:ConstantSpeed, TOWERWATERSYS PUMP, Design Flow Rate [m3/s], 0.14611
 Component Sizing Information, Pump:ConstantSpeed, TOWERWATERSYS PUMP, Design Power Consumption [W], 38616.92630
 Component Sizing Information, CoolingTower:SingleSpeed, TOWERWATERSYS COOLTOWER, Design Water Flow Rate [m3/s], 0.14611
 Component Sizing Information, CoolingTower:SingleSpeed, TOWERWATERSYS COOLTOWER, Fan Power at Design Air Flow Rate [W], 35907.25238
 Component Sizing Information, CoolingTower:SingleSpeed, TOWERWATERSYS COOLTOWER, Design Air Flow Rate [m3/s], 95.02107
 Component Sizing Information, CoolingTower:SingleSpeed, TOWERWATERSYS COOLTOWER, U-Factor Times Area Value at Design Air Flow Rate [W/C], 212283.74334
 Component Sizing Information, CoolingTower:SingleSpeed, TOWERWATERSYS COOLTOWER, Free Convection Regime Air Flow Rate [m3/s], 9.50211
 Component Sizing Information, CoolingTower:SingleSpeed, TOWERWATERSYS COOLTOWER, Free Convection U-Factor Times Area Value [W/K], 21228.37433
! <Environment>,Environment Name,Environment Type, Start Date, End Date, Start DayOfWeek, Duration {#days}, Source:Start DayOfWeek,  Use Daylight Saving, Use Holidays, Apply Weekend Holiday Rule,  Use Rain Values, Use Snow Values
! <Environment:Special Days>, Special Day Name, Special Day Type, Source, Start Date, Duration {#days}
! <Environment:Daylight Saving>, Daylight Saving Indicator, Source, Start Date, End Date
! <Environment:WarmupDays>, NumberofWarmupDays
Environment,BALTIMORE MD USA TMY2-93721 WMO#=724060,WeatherFileRunPeriod,01/01,12/31,Sunday,365,Use RunPeriod Specified Day,No,No,No,Yes,Yes
Environment:Daylight Saving,Yes,InputFile,03/12,11/05
Environment:Special Days,NEW YEARS DAY,Holiday,InputFile,01/01,  1
Environment:Special Days,VETERANS DAY,Holiday,InputFile,11/11,  1
Environment:Special Days,CHRISTMAS,Holiday,InputFile,12/25,  1
Environment:Special Days,INDEPENDENCE DAY,Holiday,InputFile,07/04,  1
Environment:Special Days,MLK DAY,Holiday,InputFile,01/16,  1
Environment:Special Days,PRESIDENTS DAY,Holiday,InputFile,02/20,  1
Environment:Special Days,MEMORIAL DAY,Holiday,InputFile,05/29,  1
Environment:Special Days,LABOR DAY,Holiday,InputFile,09/04,  1
Environment:Special Days,COLUMBUS DAY,Holiday,InputFile,10/09,  1
Environment:Special Days,THANKSGIVING,Holiday,InputFile,11/23,  1
Environment:WarmupDays,  8
! <Warmup Convergence Information>,Zone Name,Environment Type/Name,Average Warmup Temperature Difference {deltaC},Std Dev Warmup Temperature Difference {deltaC},Max Temperature Pass/Fail Convergence,Min Temperature Pass/Fail Convergence,Average Warmup Load Difference {W},Std Dev Warmup Load Difference {W},Heating Load Pass/Fail Convergence,Cooling Load Pass/Fail Convergence
 Warmup Convergence Information,BASEMENT,RunPeriod: BALTIMORE MD USA TMY2-93721 WMO#=724060,5.8615682132E-003,2.4629312167E-002,Pass,Pass,7.0247720060E-004,2.9931455993E-003,Pass,Pass
 Warmup Convergence Information,CORRIDOR_FLR_1,RunPeriod: BALTIMORE MD USA TMY2-93721 WMO#=724060,8.4559080786E-004,5.5625715492E-004,Pass,Pass,6.2658653820E-003,1.2472916783E-002,Pass,Pass
 Warmup Convergence Information,CORRIDOR_FLR_2,RunPeriod: BALTIMORE MD USA TMY2-93721 WMO#=724060,1.2205676602E-003,9.8747940741E-004,Pass,Pass,7.9142379081E-003,1.5584792492E-002,Pass,Pass
 Warmup Convergence Information,CORRIDOR_FLR_5,RunPeriod: BALTIMORE MD USA TMY2-93721 WMO#=724060,1.2189766474E-003,8.4845029139E-004,Pass,Pass,9.3625278343E-003,5.6574096347E-003,Pass,Pass
 Warmup Convergence Information,CORRIDOR_NW_FLR_3,RunPeriod: BALTIMORE MD USA TMY2-93721 WMO#=724060,2.0904756467E-003,2.5286209201E-003,Pass,Pass,1.7075505272E-003,2.1181488997E-003,Pass,Pass
 Warmup Convergence Information,CORRIDOR_NW_FLR_4,RunPeriod: BALTIMORE MD USA TMY2-93721 WMO#=724060,2.2335718716E-003,2.6038683347E-003,Pass,Pass,1.6572614862E-003,1.9778628040E-003,Pass,Pass
 Warmup Convergence Information,CORRIDOR_SE_FLR_3,RunPeriod: BALTIMORE MD USA TMY2-93721 WMO#=724060,2.0836368465E-003,2.4862509533E-003,Pass,Pass,1.6849456064E-003,2.0639627597E-003,Pass,Pass
 Warmup Convergence Information,CORRIDOR_SE_FLR_4,RunPeriod: BALTIMORE MD USA TMY2-93721 WMO#=724060,2.2414130470E-003,2.5693306520E-003,Pass,Pass,1.6404980693E-003,1.9264005819E-003,Pass,Pass
 Warmup Convergence Information,DINING_FLR_5,RunPeriod: BALTIMORE MD USA TMY2-93721 WMO#=724060,1.5891523181E-003,1.1740494728E-003,Pass,Pass,2.0610469052E-002,3.8185254337E-002,Pass,Pass
 Warmup Convergence Information,ER_EXAM1_MULT4_FLR_1,RunPeriod: BALTIMORE MD USA TMY2-93721 WMO#=724060,1.9880616220E-002,4.6432420027E-002,Pass,Pass,1.0688971894E-002,2.5508115246E-002,Pass,Pass
 Warmup Convergence Information,ER_EXAM3_MULT4_FLR_1,RunPeriod: BALTIMORE MD USA TMY2-93721 WMO#=724060,2.0187145085E-002,4.6286544045E-002,Pass,Pass,9.8592779554E-003,2.3123364269E-002,Pass,Pass
 Warmup Convergence Information,ER_NURSESTN_LOBBY_FLR_1,RunPeriod: BALTIMORE MD USA TMY2-93721 WMO#=724060,9.9094074445E-004,7.0073943508E-004,Pass,Pass,1.2900850690E-002,5.6488453106E-002,Pass,Pass
 Warmup Convergence Information,ER_TRAUMA1_FLR_1,RunPeriod: BALTIMORE MD USA TMY2-93721 WMO#=724060,2.5826192310E-002,6.6422705254E-002,Pass,Pass,1.3859740452E-002,3.6315559337E-002,Pass,Pass
 Warmup Convergence Information,ER_TRAUMA2_FLR_1,RunPeriod: BALTIMORE MD USA TMY2-93721 WMO#=724060,2.6511613798E-002,6.7066690139E-002,Pass,Pass,1.3937182308E-002,3.6277301250E-002,Pass,Pass
 Warmup Convergence Information,ER_TRIAGE_MULT4_FLR_1,RunPeriod: BALTIMORE MD USA TMY2-93721 WMO#=724060,2.4491871752E-002,5.8631714667E-002,Pass,Pass,1.0364776255E-002,2.5297015282E-002,Pass,Pass
 Warmup Convergence Information,ICU_FLR_2,RunPeriod: BALTIMORE MD USA TMY2-93721 WMO#=724060,2.5909456958E-002,6.8355041581E-002,Pass,Pass,8.2070629420E-003,2.3663787145E-002,Pass,Pass
 Warmup Convergence Information,ICU_NURSESTN_LOBBY_FLR_2,RunPeriod: BALTIMORE MD USA TMY2-93721 WMO#=724060,1.4324174521E-002,3.7746428684E-002,Pass,Pass,1.7922057228E-003,4.7461316964E-003,Pass,Pass
 Warmup Convergence Information,IC_PATROOM1_MULT5_FLR_2,RunPeriod: BALTIMORE MD USA TMY2-93721 WMO#=724060,5.1944753417E-003,3.6908904724E-003,Pass,Pass,0.2201995001,1.2098950957,Pass,Pass
 Warmup Convergence Information,IC_PATROOM2_FLR_2,RunPeriod: BALTIMORE MD USA TMY2-93721 WMO#=724060,5.1978532510E-003,3.8714333212E-003,Pass,Pass,0.1532168872,0.4784680390,Pass,Pass
 Warmup Convergence Information,IC_PATROOM3_MULT6_FLR_2,RunPeriod: BALTIMORE MD USA TMY2-93721 WMO#=724060,1.0949654585E-002,2.8168012082E-002,Pass,Pass,4.7345777725E-002,0.1187615649,Pass,Pass
 Warmup Convergence Information,KITCHEN_FLR_5,RunPeriod: BALTIMORE MD USA TMY2-93721 WMO#=724060,2.1116087101E-002,4.2196194707E-002,Pass,Pass,4.0467018886E-002,7.1355152268E-002,Pass,Pass
 Warmup Convergence Information,LAB_FLR_3,RunPeriod: BALTIMORE MD USA TMY2-93721 WMO#=724060,7.1389139385E-003,1.9965768188E-002,Pass,Pass,7.9345602940E-003,3.9514723212E-002,Pass,Pass
 Warmup Convergence Information,LAB_FLR_4,RunPeriod: BALTIMORE MD USA TMY2-93721 WMO#=724060,6.6841314398E-003,1.8052826641E-002,Pass,Pass,7.9466038910E-003,3.9924164067E-002,Pass,Pass
 Warmup Convergence Information,LOBBY_RECORDS_FLR_1,RunPeriod: BALTIMORE MD USA TMY2-93721 WMO#=724060,1.1927192006E-003,9.5773940767E-004,Pass,Pass,8.6207395054E-003,1.5818309595E-002,Pass,Pass
 Warmup Convergence Information,NURSESTN_LOBBY_FLR_3,RunPeriod: BALTIMORE MD USA TMY2-93721 WMO#=724060,8.6048709331E-004,5.4722871758E-004,Pass,Pass,9.1049582659E-003,4.2305760340E-002,Pass,Pass
 Warmup Convergence Information,NURSESTN_LOBBY_FLR_4,RunPeriod: BALTIMORE MD USA TMY2-93721 WMO#=724060,7.8109204486E-004,5.0670614241E-004,Pass,Pass,8.7756758657E-003,3.9394442654E-002,Pass,Pass
 Warmup Convergence Information,NURSESTN_LOBBY_FLR_5,RunPeriod: BALTIMORE MD USA TMY2-93721 WMO#=724060,1.2060967848E-003,9.3547239504E-004,Pass,Pass,5.5869519946E-002,0.1014773987,Pass,Pass
 Warmup Convergence Information,OR1_FLR_2,RunPeriod: BALTIMORE MD USA TMY2-93721 WMO#=724060,1.9280535203E-002,5.3904841091E-002,Pass,Pass,1.1269576674E-002,3.1756657940E-002,Pass,Pass
 Warmup Convergence Information,OR2_MULT5_FLR_2,RunPeriod: BALTIMORE MD USA TMY2-93721 WMO#=724060,2.0056521351E-002,5.3166750326E-002,Pass,Pass,9.1971331155E-003,2.4799597689E-002,Pass,Pass
 Warmup Convergence Information,OR3_FLR_2,RunPeriod: BALTIMORE MD USA TMY2-93721 WMO#=724060,1.9823839998E-002,5.3367793035E-002,Pass,Pass,9.7864161257E-003,2.6734982410E-002,Pass,Pass
 Warmup Convergence Information,OR4_FLR_2,RunPeriod: BALTIMORE MD USA TMY2-93721 WMO#=724060,2.0221697013E-002,5.5614112904E-002,Pass,Pass,8.1014408995E-003,2.2718863219E-002,Pass,Pass
 Warmup Convergence Information,OR_NURSESTN_LOBBY_FLR_2,RunPeriod: BALTIMORE MD USA TMY2-93721 WMO#=724060,1.0391818310E-003,7.4744102699E-004,Pass,Pass,3.3876580550E-002,0.1156793375,Pass,Pass
 Warmup Convergence Information,OFFICE1_FLR_5,RunPeriod: BALTIMORE MD USA TMY2-93721 WMO#=724060,2.6017143505E-003,1.7877230383E-003,Pass,Pass,1.2867790818E-002,1.6406941499E-002,Pass,Pass
 Warmup Convergence Information,OFFICE1_MULT4_FLR_1,RunPeriod: BALTIMORE MD USA TMY2-93721 WMO#=724060,1.6974755299E-003,1.1457108996E-003,Pass,Pass,1.7575841256E-002,2.5902260122E-002,Pass,Pass
 Warmup Convergence Information,OFFICE2_MULT5_FLR_5,RunPeriod: BALTIMORE MD USA TMY2-93721 WMO#=724060,2.1349699309E-003,1.5797994702E-003,Pass,Pass,1.6117496388E-002,2.4493473866E-002,Pass,Pass
 Warmup Convergence Information,OFFICE3_FLR_5,RunPeriod: BALTIMORE MD USA TMY2-93721 WMO#=724060,2.8810704944E-003,2.0461783454E-003,Pass,Pass,1.1209527066E-002,1.4732986142E-002,Pass,Pass
 Warmup Convergence Information,OFFICE4_MULT6_FLR_5,RunPeriod: BALTIMORE MD USA TMY2-93721 WMO#=724060,1.5897158586E-003,1.1735547748E-003,Pass,Pass,1.1249384547E-002,1.4571817648E-002,Pass,Pass
 Warmup Convergence Information,PATROOM1_MULT10_FLR_3,RunPeriod: BALTIMORE MD USA TMY2-93721 WMO#=724060,6.2889362652E-003,3.9959614909E-003,Pass,Pass,0.2214622455,0.8523485906,Pass,Pass
 Warmup Convergence Information,PATROOM1_MULT10_FLR_4,RunPeriod: BALTIMORE MD USA TMY2-93721 WMO#=724060,5.8981176352E-003,3.5055634122E-003,Pass,Pass,14.5606354564,140.3562200202,Pass,Pass
 Warmup Convergence Information,PATROOM2_FLR_3,RunPeriod: BALTIMORE MD USA TMY2-93721 WMO#=724060,5.7446558624E-003,3.5689988252E-003,Pass,Pass,0.2791062507,1.0786960813,Pass,Pass
 Warmup Convergence Information,PATROOM2_FLR_4,RunPeriod: BALTIMORE MD USA TMY2-93721 WMO#=724060,5.3400727789E-003,3.5474338873E-003,Pass,Pass,0.3155608105,1.3808410975,Pass,Pass
 Warmup Convergence Information,PATROOM3_MULT10_FLR_3,RunPeriod: BALTIMORE MD USA TMY2-93721 WMO#=724060,5.7157656332E-003,4.2389037706E-003,Pass,Pass,0.6076847157,4.5169394996,Pass,Pass
 Warmup Convergence Information,PATROOM3_MULT10_FLR_4,RunPeriod: BALTIMORE MD USA TMY2-93721 WMO#=724060,5.3574255116E-003,3.8677448010E-003,Pass,Pass,0.6825967132,5.4292070576,Pass,Pass
 Warmup Convergence Information,PATROOM4_FLR_3,RunPeriod: BALTIMORE MD USA TMY2-93721 WMO#=724060,5.1062307616E-003,3.3156943775E-003,Pass,Pass,5.2920113563E-002,8.8346604341E-002,Pass,Pass
 Warmup Convergence Information,PATROOM4_FLR_4,RunPeriod: BALTIMORE MD USA TMY2-93721 WMO#=724060,5.9390234482E-003,4.0705213664E-003,Pass,Pass,4.8888477712E-002,8.4261339813E-002,Pass,Pass
 Warmup Convergence Information,PATROOM5_MULT10_FLR_3,RunPeriod: BALTIMORE MD USA TMY2-93721 WMO#=724060,6.0056309486E-003,3.8661616581E-003,Pass,Pass,0.3807800580,2.7598336505,Pass,Pass
 Warmup Convergence Information,PATROOM5_MULT10_FLR_4,RunPeriod: BALTIMORE MD USA TMY2-93721 WMO#=724060,5.4941313600E-003,3.3104631032E-003,Pass,Pass,0.1802065378,0.9023796839,Pass,Pass
 Warmup Convergence Information,PATROOM6_FLR_3,RunPeriod: BALTIMORE MD USA TMY2-93721 WMO#=724060,5.4613109465E-003,3.5621918177E-003,Pass,Pass,5.3980483604E-002,8.8640766990E-002,Pass,Pass
 Warmup Convergence Information,PATROOM6_FLR_4,RunPeriod: BALTIMORE MD USA TMY2-93721 WMO#=724060,6.2263964166E-003,3.5430705397E-003,Pass,Pass,4.9823778362E-002,8.1733111859E-002,Pass,Pass
 Warmup Convergence Information,PATROOM7_MULT10_FLR_3,RunPeriod: BALTIMORE MD USA TMY2-93721 WMO#=724060,6.2309782730E-003,4.9743825258E-003,Pass,Pass,0.9870856865,7.9538328172,Pass,Pass
 Warmup Convergence Information,PATROOM7_MULT10_FLR_4,RunPeriod: BALTIMORE MD USA TMY2-93721 WMO#=724060,6.0596297111E-003,4.9157487251E-003,Pass,Pass,0.8036495970,6.9394869027,Pass,Pass
 Warmup Convergence Information,PATROOM8_FLR_3,RunPeriod: BALTIMORE MD USA TMY2-93721 WMO#=724060,5.4529489019E-003,3.6693685252E-003,Pass,Pass,3.6117919766E-002,6.2971674585E-002,Pass,Pass
 Warmup Convergence Information,PATROOM8_FLR_4,RunPeriod: BALTIMORE MD USA TMY2-93721 WMO#=724060,5.2341335256E-003,3.4067261436E-003,Pass,Pass,3.5629171137E-002,6.1219242648E-002,Pass,Pass
 Warmup Convergence Information,PHYSTHERAPY_FLR_3,RunPeriod: BALTIMORE MD USA TMY2-93721 WMO#=724060,1.8747865968E-003,1.7380533922E-003,Pass,Pass,9.5890403252E-003,4.8173081509E-002,Pass,Pass
 Warmup Convergence Information,RADIOLOGY_FLR_4,RunPeriod: BALTIMORE MD USA TMY2-93721 WMO#=724060,3.2432259449E-003,2.3397736608E-003,Pass,Pass,9.2811620300E-003,4.7674879314E-002,Pass,Pass
! <Program Control Information:Threads/Parallel Sims>, Threading Supported,Maximum Number of Threads, Env Set Threads (OMP_NUM_THREADS), EP Env Set Threads (EP_OMP_NUM_THREADS), IDF Set Threads, Number of Threads Used (Interior Radiant Exchange), Number Nominal Surfaces, Number Parallel Sims
Program Control:Threads/Parallel Sims, No,1, N/A, N/A, N/A, N/A, N/A, N/A
End of Data
