Program Version,EnergyPlus, Version 8.8.0-7c3bbe4830, YMD=2018.08.31 07:42
! <Version>, Version ID
 Version, 8.8
! <Timesteps per Hour>, #TimeSteps, Minutes per TimeStep {minutes}
 Timesteps per Hour,  6, 10
! <System Convergence Limits>, Minimum System TimeStep {minutes}, Max HVAC Iterations, Minimum Plant Iterations, Maximum Plant Iterations
 System Convergence Limits, 2, 25, 2, 8
! <Simulation Control>, Do Zone Sizing, Do System Sizing, Do Plant Sizing, Do Design Days, Do Weather Simulation, Do HVAC Sizing Simulation
 Simulation Control, Yes, Yes, Yes, No, Yes, No
! <Output Reporting Tolerances>, Tolerance for Time Heating Setpoint Not Met, Tolerance for Zone Cooling Setpoint Not Met Time
 Output Reporting Tolerances, 0.556, 0.556, 
! <Site:GroundTemperature:BuildingSurface>,Jan{C},Feb{C},Mar{C},Apr{C},May{C},Jun{C},Jul{C},Aug{C},Sep{C},Oct{C},Nov{C},Dec{C}
 Site:GroundTemperature:BuildingSurface,  19.71,  19.66,  19.71,  19.75,  20.49,  22.11,  22.46,  22.55,  22.17,  20.61,  20.05,  19.80
! <Site:GroundTemperature:FCfactorMethod>,Jan{C},Feb{C},Mar{C},Apr{C},May{C},Jun{C},Jul{C},Aug{C},Sep{C},Oct{C},Nov{C},Dec{C}
 Site:GroundTemperature:FCfactorMethod,   2.18,   1.16,   2.97,   5.81,  13.21,  18.93,  22.79,  23.96,  21.96,  17.52,  11.59,   6.09
! <Site:GroundTemperature:Shallow>,Jan{C},Feb{C},Mar{C},Apr{C},May{C},Jun{C},Jul{C},Aug{C},Sep{C},Oct{C},Nov{C},Dec{C}
 Site:GroundTemperature:Shallow,  13.00,  13.00,  13.00,  13.00,  13.00,  13.00,  13.00,  13.00,  13.00,  13.00,  13.00,  13.00
! <Site:GroundTemperature:Deep>,Jan{C},Feb{C},Mar{C},Apr{C},May{C},Jun{C},Jul{C},Aug{C},Sep{C},Oct{C},Nov{C},Dec{C}
 Site:GroundTemperature:Deep,  16.00,  16.00,  16.00,  16.00,  16.00,  16.00,  16.00,  16.00,  16.00,  16.00,  16.00,  16.00
! <Site:GroundReflectance>,Jan{dimensionless},Feb{dimensionless},Mar{dimensionless},Apr{dimensionless},May{dimensionless},Jun{dimensionless},Jul{dimensionless},Aug{dimensionless},Sep{dimensionless},Oct{dimensionless},Nov{dimensionless},Dec{dimensionless}
 Site:GroundReflectance,  0.20,  0.20,  0.20,  0.20,  0.20,  0.20,  0.20,  0.20,  0.20,  0.20,  0.20,  0.20
! <Site:GroundReflectance:SnowModifier>, Normal, Daylighting {dimensionless}
 Site:GroundReflectance:SnowModifier,   1.000,   1.000
! <Site:GroundReflectance:Snow>,Jan{dimensionless},Feb{dimensionless},Mar{dimensionless},Apr{dimensionless},May{dimensionless},Jun{dimensionless},Jul{dimensionless},Aug{dimensionless},Sep{dimensionless},Oct{dimensionless},Nov{dimensionless},Dec{dimensionless}
 Site:GroundReflectance:Snow,  0.20,  0.20,  0.20,  0.20,  0.20,  0.20,  0.20,  0.20,  0.20,  0.20,  0.20,  0.20
! <Site:GroundReflectance:Snow:Daylighting>,Jan{dimensionless},Feb{dimensionless},Mar{dimensionless},Apr{dimensionless},May{dimensionless},Jun{dimensionless},Jul{dimensionless},Aug{dimensionless},Sep{dimensionless},Oct{dimensionless},Nov{dimensionless},Dec{dimensionless}
 Site:GroundReflectance:Snow:Daylighting,  0.20,  0.20,  0.20,  0.20,  0.20,  0.20,  0.20,  0.20,  0.20,  0.20,  0.20,  0.20
! <Environment:Weather Station>,Wind Sensor Height Above Ground {m},Wind Speed Profile Exponent {},Wind Speed Profile Boundary Layer Thickness {m},Air Temperature Sensor Height Above Ground {m},Wind Speed Modifier Coefficient-Internal,Temperature Modifier Coefficient-Internal
Environment:Weather Station,10.000,0.140,270.000,1.500,1.586,9.750E-003
! <Site:Location>, Location Name, Latitude {N+/S- Deg}, Longitude {E+/W- Deg},  Time Zone Number {GMT+/-}, Elevation {m},  Standard Pressure at Elevation {Pa}, Standard RhoAir at Elevation
Site:Location,BALTIMORE MD USA TMY2-93721 WMO#=724060,39.18,-76.67,-5.00,47.00,100762,1.1976
! <Building Information>, Building Name,North Axis {deg},Terrain,  Loads Convergence Tolerance Value,Temperature Convergence Tolerance Value,  Solar Distribution,Maximum Number of Warmup Days,Minimum Number of Warmup Days
 Building Information,Ref Bldg Secondary School New2004_v1.3_5.0,0.000,City,4.00000E-002,0.20000,FullInteriorAndExterior,25,6
! <Inside Convection Algorithm>, Algorithm {Simple | TARP | CeilingDiffuser | AdaptiveConvectionAlgorithm}
Inside Convection Algorithm,TARP
! <Outside Convection Algorithm>, Algorithm {SimpleCombined | TARP | MoWitt | DOE-2 | AdaptiveConvectionAlgorithm}
Outside Convection Algorithm,DOE-2
! <Sky Radiance Distribution>, Value {Anisotropic}
Sky Radiance Distribution,Anisotropic
! <Zone Air Solution Algorithm>, Value {ThirdOrderBackwardDifference | AnalyticalSolution | EulerMethod}
 Zone Air Solution Algorithm, AnalyticalSolution
! <Zone Air Carbon Dioxide Balance Simulation>, Simulation {Yes/No}, Carbon Dioxide Concentration
 Zone Air Carbon Dioxide Balance Simulation, No,N/A
! <Zone Air Generic Contaminant Balance Simulation>, Simulation {Yes/No}, Generic Contaminant Concentration
 Zone Air Generic Contaminant Balance Simulation, No,N/A
! <Zone Air Mass Flow Balance Simulation>, Enforce Mass Balance, Adjust Zone Mixing, Adjust Zone Infiltration {AddInfiltration | AdjustInfiltration | None}, Infiltration Zones {MixingSourceZonesOnly | AllZones}
 Zone Air Mass Flow Balance Simulation, No,N/A,N/A,N/A
! <HVACSystemRootFindingAlgorithm>, Value {RegulaFalsi | Bisection | BisectionThenRegulaFalsi | RegulaFalsiThenBisection}
 HVACSystemRootFindingAlgorithm, RegulaFalsi
! <Environment:Site Atmospheric Variation>,Wind Speed Profile Exponent {},Wind Speed Profile Boundary Layer Thickness {m},Air Temperature Gradient Coefficient {K/m}
Environment:Site Atmospheric Variation,0.330,460.000,6.500000E-003
! <Surface Geometry>,Starting Corner,Vertex Input Direction,Coordinate System,Daylight Reference Point Coordinate System,Rectangular (Simple) Surface Coordinate System
 Surface Geometry,UpperLeftCorner,Counterclockwise,RelativeCoordinateSystem,RelativeCoordinateSystem,RelativeToZoneOrigin
! <Surface Heat Transfer Algorithm>, Value {CTF - ConductionTransferFunction | EMPD - MoisturePenetrationDepthConductionTransferFunction | CondFD - ConductionFiniteDifference | HAMT - CombinedHeatAndMoistureFiniteElement} - Description,Inside Surface Max Temperature Limit{C}, Surface Convection Coefficient Lower Limit {W/m2-K}, Surface Convection Coefficient Upper Limit {W/m2-K}
Surface Heat Transfer Algorithm, CTF - ConductionTransferFunction,200,0.10,1000.0
! <Shading Summary>, Number of Fixed Detached Shades, Number of Building Detached Shades, Number of Attached Shades
 Shading Summary,0,0,0
! <Zone Summary>, Number of Zones, Number of Zone Surfaces, Number of SubSurfaces
 Zone Summary,46,527,157
! <Zone Information>,Zone Name,North Axis {deg},Origin X-Coordinate {m},Origin Y-Coordinate {m},Origin Z-Coordinate {m},Centroid X-Coordinate {m},Centroid Y-Coordinate {m},Centroid Z-Coordinate {m},Type,Zone Multiplier,Zone List Multiplier,Minimum X {m},Maximum X {m},Minimum Y {m},Maximum Y {m},Minimum Z {m},Maximum Z {m},Ceiling Height {m},Volume {m3},Zone Inside Convection Algorithm {Simple-Detailed-CeilingDiffuser-TrombeWall},Zone Outside Convection Algorithm {Simple-Detailed-Tarp-MoWitt-DOE-2-BLAST}, Floor Area {m2},Exterior Gross Wall Area {m2},Exterior Net Wall Area {m2},Exterior Window Area {m2}, Number of Surfaces, Number of SubSurfaces, Number of Shading SubSurfaces,  Part of Total Building Area
 Zone Information, AUDITORIUM_ZN_1_FLR_1,0.0,79.00,75.00,0.00,98.00,88.00,4.00,1,1,1,79.00,117.00,75.00,101.00,0.00,8.00,8.00,7904.00,TARP,DOE-2,988.00,512.00,405.60,106.40,10,2,0,Yes
 Zone Information, AUX_GYM_ZN_1_FLR_1,0.0,117.00,14.00,0.00,129.00,40.00,4.00,1,1,1,117.00,141.00,14.00,66.00,0.00,8.00,8.00,9984.00,TARP,DOE-2,1248.00,608.00,395.20,266.35,10,40,0,Yes
 Zone Information, BATHROOMS_ZN_1_FLR_1,0.0,64.00,90.00,0.00,71.50,97.00,2.00,1,1,1,64.00,79.00,90.00,104.00,0.00,4.00,4.00,840.00,TARP,DOE-2,210.00,116.00,90.80,25.20,8,2,0,Yes
 Zone Information, BATHROOMS_ZN_1_FLR_2,0.0,64.00,90.00,4.00,71.50,97.00,6.00,1,1,1,64.00,79.00,90.00,104.00,4.00,8.00,4.00,840.00,TARP,DOE-2,210.00,116.00,90.80,25.20,8,2,0,Yes
 Zone Information, CAFETERIA_ZN_1_FLR_1,0.0,117.00,75.00,0.00,129.00,88.00,2.00,1,1,1,117.00,141.00,75.00,101.00,0.00,4.00,4.00,2496.00,TARP,DOE-2,624.00,200.00,130.00,70.00,6,2,0,Yes
 Zone Information, CORNER_CLASS_1_POD_1_ZN_1_FLR_1,0.0,0.00,0.00,0.00,5.50,4.50,2.00,1,1,1,0.00,11.00,0.00,9.00,0.00,4.00,4.00,396.00,TARP,DOE-2,99.00,80.00,52.00,28.00,6,2,0,Yes
 Zone Information, CORNER_CLASS_1_POD_1_ZN_1_FLR_2,0.0,0.00,0.00,4.00,5.50,4.50,6.00,1,1,1,0.00,11.00,0.00,9.00,4.00,8.00,4.00,396.00,TARP,DOE-2,99.00,80.00,52.00,28.00,6,2,0,Yes
 Zone Information, CORNER_CLASS_1_POD_2_ZN_1_FLR_1,0.0,0.00,40.00,0.00,5.50,44.50,2.00,1,1,1,0.00,11.00,40.00,49.00,0.00,4.00,4.00,396.00,TARP,DOE-2,99.00,80.00,52.00,28.00,6,2,0,Yes
 Zone Information, CORNER_CLASS_1_POD_2_ZN_1_FLR_2,0.0,0.00,40.00,4.00,5.50,44.50,6.00,1,1,1,0.00,11.00,40.00,49.00,4.00,8.00,4.00,396.00,TARP,DOE-2,99.00,80.00,52.00,28.00,6,2,0,Yes
 Zone Information, CORNER_CLASS_1_POD_3_ZN_1_FLR_1,0.0,0.00,81.00,0.00,5.50,85.50,2.00,1,1,1,0.00,11.00,81.00,90.00,0.00,4.00,4.00,396.00,TARP,DOE-2,99.00,80.00,52.00,28.00,6,2,0,Yes
 Zone Information, CORNER_CLASS_1_POD_3_ZN_1_FLR_2,0.0,0.00,81.00,4.00,5.50,85.50,6.00,1,1,1,0.00,11.00,81.00,90.00,4.00,8.00,4.00,396.00,TARP,DOE-2,99.00,80.00,52.00,28.00,6,2,0,Yes
 Zone Information, CORNER_CLASS_2_POD_1_ZN_1_FLR_1,0.0,0.00,14.00,0.00,5.50,18.50,2.00,1,1,1,0.00,11.00,14.00,23.00,0.00,4.00,4.00,396.00,TARP,DOE-2,99.00,80.00,52.00,28.00,6,2,0,Yes
 Zone Information, CORNER_CLASS_2_POD_1_ZN_1_FLR_2,0.0,0.00,14.00,4.00,5.50,18.50,6.00,1,1,1,0.00,11.00,14.00,23.00,4.00,8.00,4.00,396.00,TARP,DOE-2,99.00,80.00,52.00,28.00,6,2,0,Yes
 Zone Information, CORNER_CLASS_2_POD_2_ZN_1_FLR_1,0.0,0.00,54.00,0.00,5.50,58.50,2.00,1,1,1,0.00,11.00,54.00,63.00,0.00,4.00,4.00,396.00,TARP,DOE-2,99.00,80.00,52.00,28.00,6,2,0,Yes
 Zone Information, CORNER_CLASS_2_POD_2_ZN_1_FLR_2,0.0,0.00,54.00,4.00,5.50,58.50,6.00,1,1,1,0.00,11.00,54.00,63.00,4.00,8.00,4.00,396.00,TARP,DOE-2,99.00,80.00,52.00,28.00,6,2,0,Yes
 Zone Information, CORNER_CLASS_2_POD_3_ZN_1_FLR_1,0.0,0.00,95.00,0.00,5.50,99.50,2.00,1,1,1,0.00,11.00,95.00,104.00,0.00,4.00,4.00,396.00,TARP,DOE-2,99.00,80.00,52.00,28.00,6,2,0,Yes
 Zone Information, CORNER_CLASS_2_POD_3_ZN_1_FLR_2,0.0,0.00,95.00,4.00,5.50,99.50,6.00,1,1,1,0.00,11.00,95.00,104.00,4.00,8.00,4.00,396.00,TARP,DOE-2,99.00,80.00,52.00,28.00,6,2,0,Yes
 Zone Information, CORRIDOR_POD_1_ZN_1_FLR_1,0.0,0.00,9.00,0.00,32.00,11.50,2.00,1,1,1,0.00,64.00,9.00,14.00,0.00,4.00,4.00,1280.00,TARP,DOE-2,320.00,20.00,13.00,7.00,8,1,0,Yes
 Zone Information, CORRIDOR_POD_1_ZN_1_FLR_2,0.0,0.00,9.00,4.00,32.00,11.50,6.00,1,1,1,0.00,64.00,9.00,14.00,4.00,8.00,4.00,1280.00,TARP,DOE-2,320.00,20.00,13.00,7.00,8,1,0,Yes
 Zone Information, CORRIDOR_POD_2_ZN_1_FLR_1,0.0,0.00,49.00,0.00,32.00,51.50,2.00,1,1,1,0.00,64.00,49.00,54.00,0.00,4.00,4.00,1280.00,TARP,DOE-2,320.00,20.00,13.00,7.00,8,1,0,Yes
 Zone Information, CORRIDOR_POD_2_ZN_1_FLR_2,0.0,0.00,49.00,4.00,32.00,51.50,6.00,1,1,1,0.00,64.00,49.00,54.00,4.00,8.00,4.00,1280.00,TARP,DOE-2,320.00,20.00,13.00,7.00,8,1,0,Yes
 Zone Information, CORRIDOR_POD_3_ZN_1_FLR_1,0.0,0.00,90.00,0.00,32.00,92.50,2.00,1,1,1,0.00,64.00,90.00,95.00,0.00,4.00,4.00,1280.00,TARP,DOE-2,320.00,20.00,13.00,7.00,8,1,0,Yes
 Zone Information, CORRIDOR_POD_3_ZN_1_FLR_2,0.0,0.00,90.00,4.00,32.00,92.50,6.00,1,1,1,0.00,64.00,90.00,95.00,4.00,8.00,4.00,1280.00,TARP,DOE-2,320.00,20.00,13.00,7.00,8,1,0,Yes
 Zone Information, GYM_ZN_1_FLR_1,0.0,79.00,14.00,0.00,98.00,40.00,4.00,1,1,1,79.00,117.00,14.00,66.00,0.00,8.00,8.00,15808.00,TARP,DOE-2,1976.00,0.00,0.00,80.28,10,54,0,Yes
 Zone Information, KITCHEN_ZN_1_FLR_1,0.0,117.00,66.00,0.00,129.00,70.50,2.00,1,1,1,117.00,141.00,66.00,75.00,0.00,4.00,4.00,864.00,TARP,DOE-2,216.00,36.00,23.40,12.60,6,1,0,Yes
 Zone Information, LIBRARY_MEDIA_CENTER_ZN_1_FLR_2,0.0,117.00,66.00,4.00,129.00,83.50,6.00,1,1,1,117.00,141.00,66.00,101.00,4.00,8.00,4.00,3360.00,TARP,DOE-2,840.00,236.00,152.99,83.01,8,2,0,Yes
 Zone Information, LOBBY_ZN_1_FLR_1,0.0,64.00,0.00,0.00,71.50,7.00,2.00,1,1,1,64.00,79.00,0.00,14.00,0.00,4.00,4.00,840.00,TARP,DOE-2,210.00,60.00,39.00,21.00,7,1,0,Yes
 Zone Information, LOBBY_ZN_1_FLR_2,0.0,64.00,0.00,4.00,71.50,7.00,6.00,1,1,1,64.00,79.00,0.00,14.00,4.00,8.00,4.00,840.00,TARP,DOE-2,210.00,60.00,39.00,21.00,7,1,0,Yes
 Zone Information, MAIN_CORRIDOR_ZN_1_FLR_1,0.0,64.00,14.00,0.00,71.50,52.00,2.00,1,1,1,64.00,79.00,14.00,90.00,0.00,4.00,4.00,4560.00,TARP,DOE-2,1140.00,200.00,151.00,49.00,14,2,0,Yes
 Zone Information, MAIN_CORRIDOR_ZN_1_FLR_2,0.0,64.00,14.00,4.00,71.50,52.00,6.00,1,1,1,64.00,79.00,14.00,90.00,4.00,8.00,4.00,4560.00,TARP,DOE-2,1140.00,200.00,151.00,49.00,14,2,0,Yes
 Zone Information, MECH_ZN_1_FLR_1,0.0,79.00,66.00,0.00,98.00,70.50,2.00,1,1,1,79.00,117.00,66.00,75.00,0.00,4.00,4.00,1368.00,TARP,DOE-2,342.00,0.00,0.00,0.00,6,0,0,Yes
 Zone Information, MECH_ZN_1_FLR_2,0.0,79.00,66.00,4.00,98.00,70.50,6.00,1,1,1,79.00,117.00,66.00,75.00,4.00,8.00,4.00,1368.00,TARP,DOE-2,342.00,0.00,0.00,0.00,6,0,0,Yes
 Zone Information, MULT_CLASS_1_POD_1_ZN_1_FLR_1,0.0,11.00,0.00,0.00,37.50,4.50,2.00,1,1,1,11.00,64.00,0.00,9.00,0.00,4.00,4.00,1908.00,TARP,DOE-2,477.00,212.00,137.80,74.20,6,1,0,Yes
 Zone Information, MULT_CLASS_1_POD_1_ZN_1_FLR_2,0.0,11.00,0.00,4.00,37.50,4.50,6.00,1,1,1,11.00,64.00,0.00,9.00,4.00,8.00,4.00,1908.00,TARP,DOE-2,477.00,212.00,137.80,74.20,6,1,0,Yes
 Zone Information, MULT_CLASS_1_POD_2_ZN_1_FLR_1,0.0,11.00,40.00,0.00,37.50,44.50,2.00,1,1,1,11.00,64.00,40.00,49.00,0.00,4.00,4.00,1908.00,TARP,DOE-2,477.00,212.00,137.80,74.20,6,1,0,Yes
 Zone Information, MULT_CLASS_1_POD_2_ZN_1_FLR_2,0.0,11.00,40.00,4.00,37.50,44.50,6.00,1,1,1,11.00,64.00,40.00,49.00,4.00,8.00,4.00,1908.00,TARP,DOE-2,477.00,212.00,137.80,74.20,6,1,0,Yes
 Zone Information, MULT_CLASS_1_POD_3_ZN_1_FLR_1,0.0,11.00,81.00,0.00,37.50,85.50,2.00,1,1,1,11.00,64.00,81.00,90.00,0.00,4.00,4.00,1908.00,TARP,DOE-2,477.00,212.00,137.80,74.20,6,1,0,Yes
 Zone Information, MULT_CLASS_1_POD_3_ZN_1_FLR_2,0.0,11.00,81.00,4.00,37.50,85.50,6.00,1,1,1,11.00,64.00,81.00,90.00,4.00,8.00,4.00,1908.00,TARP,DOE-2,477.00,212.00,137.80,74.20,6,1,0,Yes
 Zone Information, MULT_CLASS_2_POD_1_ZN_1_FLR_1,0.0,11.00,14.00,0.00,37.50,18.50,2.00,1,1,1,11.00,64.00,14.00,23.00,0.00,4.00,4.00,1908.00,TARP,DOE-2,477.00,212.00,137.80,74.20,6,1,0,Yes
 Zone Information, MULT_CLASS_2_POD_1_ZN_1_FLR_2,0.0,11.00,14.00,4.00,37.50,18.50,6.00,1,1,1,11.00,64.00,14.00,23.00,4.00,8.00,4.00,1908.00,TARP,DOE-2,477.00,212.00,137.80,74.20,6,1,0,Yes
 Zone Information, MULT_CLASS_2_POD_2_ZN_1_FLR_1,0.0,11.00,54.00,0.00,37.50,58.50,2.00,1,1,1,11.00,64.00,54.00,63.00,0.00,4.00,4.00,1908.00,TARP,DOE-2,477.00,212.00,137.80,74.20,6,1,0,Yes
 Zone Information, MULT_CLASS_2_POD_2_ZN_1_FLR_2,0.0,11.00,54.00,4.00,37.50,58.50,6.00,1,1,1,11.00,64.00,54.00,63.00,4.00,8.00,4.00,1908.00,TARP,DOE-2,477.00,212.00,137.80,74.20,6,1,0,Yes
 Zone Information, MULT_CLASS_2_POD_3_ZN_1_FLR_1,0.0,11.00,95.00,0.00,37.50,99.50,2.00,1,1,1,11.00,64.00,95.00,104.00,0.00,4.00,4.00,1908.00,TARP,DOE-2,477.00,212.00,137.80,74.20,6,1,0,Yes
 Zone Information, MULT_CLASS_2_POD_3_ZN_1_FLR_2,0.0,11.00,95.00,4.00,37.50,99.50,6.00,1,1,1,11.00,64.00,95.00,104.00,4.00,8.00,4.00,1908.00,TARP,DOE-2,477.00,212.00,137.80,74.20,6,1,0,Yes
 Zone Information, OFFICES_ZN_1_FLR_1,0.0,79.00,0.00,0.00,98.00,7.00,2.00,1,1,1,79.00,117.00,0.00,14.00,0.00,4.00,4.00,2128.00,TARP,DOE-2,532.00,208.00,135.20,72.80,6,2,0,Yes
 Zone Information, OFFICES_ZN_1_FLR_2,0.0,79.00,0.00,4.00,98.00,7.00,6.00,1,1,1,79.00,117.00,0.00,14.00,4.00,8.00,4.00,2128.00,TARP,DOE-2,532.00,208.00,135.20,72.80,6,2,0,Yes
! <Zone Internal Gains Nominal>,Zone Name, Floor Area {m2},# Occupants,Area per Occupant {m2/person},Occupant per Area {person/m2},Interior Lighting {W/m2},Electric Load {W/m2},Gas Load {W/m2},Other Load {W/m2},Hot Water Eq {W/m2},Steam Equipment {W/m2},Sum Loads per Area {W/m2},Outdoor Controlled Baseboard Heat
 Zone Internal Gains Nominal, AUDITORIUM_ZN_1_FLR_1,988.00,988.0,1.000,1.000,9.680,5.000,0.000,0.000,0.000,0.000,14.680,No
 Zone Internal Gains Nominal, AUX_GYM_ZN_1_FLR_1,1248.00,374.8,3.330,0.300,15.060,5.000,0.000,0.000,0.000,0.000,20.060,No
 Zone Internal Gains Nominal, BATHROOMS_ZN_1_FLR_1,210.00,21.0,10.000,0.100,9.680,4.000,0.000,0.000,0.000,0.000,13.680,No
 Zone Internal Gains Nominal, BATHROOMS_ZN_1_FLR_2,210.00,21.0,10.000,0.100,9.680,4.000,0.000,0.000,0.000,0.000,13.680,No
 Zone Internal Gains Nominal, CAFETERIA_ZN_1_FLR_1,624.00,448.9,1.390,0.719,15.060,19.260,0.000,0.000,0.000,0.000,34.320,No
 Zone Internal Gains Nominal, CORNER_CLASS_1_POD_1_ZN_1_FLR_1,99.00,24.8,4.000,0.250,15.060,10.000,0.000,0.000,0.000,0.000,25.060,No
 Zone Internal Gains Nominal, CORNER_CLASS_1_POD_1_ZN_1_FLR_2,99.00,24.8,4.000,0.250,15.060,10.000,0.000,0.000,0.000,0.000,25.060,No
 Zone Internal Gains Nominal, CORNER_CLASS_1_POD_2_ZN_1_FLR_1,99.00,24.8,4.000,0.250,15.060,10.000,0.000,0.000,0.000,0.000,25.060,No
 Zone Internal Gains Nominal, CORNER_CLASS_1_POD_2_ZN_1_FLR_2,99.00,24.8,4.000,0.250,15.060,10.000,0.000,0.000,0.000,0.000,25.060,No
 Zone Internal Gains Nominal, CORNER_CLASS_1_POD_3_ZN_1_FLR_1,99.00,24.8,4.000,0.250,15.060,10.000,0.000,0.000,0.000,0.000,25.060,No
 Zone Internal Gains Nominal, CORNER_CLASS_1_POD_3_ZN_1_FLR_2,99.00,24.8,4.000,0.250,15.060,10.000,0.000,0.000,0.000,0.000,25.060,No
 Zone Internal Gains Nominal, CORNER_CLASS_2_POD_1_ZN_1_FLR_1,99.00,24.8,4.000,0.250,15.060,10.000,0.000,0.000,0.000,0.000,25.060,No
 Zone Internal Gains Nominal, CORNER_CLASS_2_POD_1_ZN_1_FLR_2,99.00,24.8,4.000,0.250,15.060,10.000,0.000,0.000,0.000,0.000,25.060,No
 Zone Internal Gains Nominal, CORNER_CLASS_2_POD_2_ZN_1_FLR_1,99.00,24.8,4.000,0.250,15.060,10.000,0.000,0.000,0.000,0.000,25.060,No
 Zone Internal Gains Nominal, CORNER_CLASS_2_POD_2_ZN_1_FLR_2,99.00,24.8,4.000,0.250,15.060,10.000,0.000,0.000,0.000,0.000,25.060,No
 Zone Internal Gains Nominal, CORNER_CLASS_2_POD_3_ZN_1_FLR_1,99.00,24.8,4.000,0.250,15.060,10.000,0.000,0.000,0.000,0.000,25.060,No
 Zone Internal Gains Nominal, CORNER_CLASS_2_POD_3_ZN_1_FLR_2,99.00,24.8,4.000,0.250,15.060,10.000,0.000,0.000,0.000,0.000,25.060,No
 Zone Internal Gains Nominal, CORRIDOR_POD_1_ZN_1_FLR_1,320.00,32.0,10.000,0.100,15.060,4.000,0.000,0.000,0.000,0.000,19.060,No
 Zone Internal Gains Nominal, CORRIDOR_POD_1_ZN_1_FLR_2,320.00,32.0,10.000,0.100,5.380,4.000,0.000,0.000,0.000,0.000,9.380,No
 Zone Internal Gains Nominal, CORRIDOR_POD_2_ZN_1_FLR_1,320.00,32.0,10.000,0.100,5.380,4.000,0.000,0.000,0.000,0.000,9.380,No
 Zone Internal Gains Nominal, CORRIDOR_POD_2_ZN_1_FLR_2,320.00,32.0,10.000,0.100,5.380,4.000,0.000,0.000,0.000,0.000,9.380,No
 Zone Internal Gains Nominal, CORRIDOR_POD_3_ZN_1_FLR_1,320.00,32.0,10.000,0.100,5.380,4.000,0.000,0.000,0.000,0.000,9.380,No
 Zone Internal Gains Nominal, CORRIDOR_POD_3_ZN_1_FLR_2,320.00,32.0,10.000,0.100,5.380,4.000,0.000,0.000,0.000,0.000,9.380,No
 Zone Internal Gains Nominal, GYM_ZN_1_FLR_1,1976.00,1976.0,1.000,1.000,15.060,5.000,0.000,0.000,0.000,0.000,20.060,No
 Zone Internal Gains Nominal, KITCHEN_ZN_1_FLR_1,216.00,32.4,6.667,0.150,12.910,225.431,1119.042,0.000,0.000,0.000,1357.382,No
 Zone Internal Gains Nominal, LIBRARY_MEDIA_CENTER_ZN_1_FLR_2,840.00,193.1,4.350,0.230,13.990,10.000,0.000,0.000,0.000,0.000,23.990,No
 Zone Internal Gains Nominal, LOBBY_ZN_1_FLR_1,210.00,0.0,N/A,0.000,13.990,4.000,0.000,0.000,0.000,0.000,17.990,No
 Zone Internal Gains Nominal, LOBBY_ZN_1_FLR_2,210.00,0.0,N/A,0.000,13.990,4.000,0.000,0.000,0.000,0.000,17.990,No
 Zone Internal Gains Nominal, MAIN_CORRIDOR_ZN_1_FLR_1,1140.00,0.0,N/A,0.000,5.380,4.000,0.000,0.000,0.000,0.000,9.380,No
 Zone Internal Gains Nominal, MAIN_CORRIDOR_ZN_1_FLR_2,1140.00,0.0,N/A,0.000,5.380,4.000,0.000,0.000,0.000,0.000,9.380,No
 Zone Internal Gains Nominal, MECH_ZN_1_FLR_1,342.00,3.4,100.000,1.000E-002,16.140,97.889,0.000,0.000,0.000,0.000,114.029,No
 Zone Internal Gains Nominal, MECH_ZN_1_FLR_2,342.00,3.4,100.000,1.000E-002,16.140,4.000,0.000,0.000,0.000,0.000,20.140,No
 Zone Internal Gains Nominal, MULT_CLASS_1_POD_1_ZN_1_FLR_1,477.00,119.3,4.000,0.250,15.060,10.000,0.000,0.000,0.000,0.000,25.060,No
 Zone Internal Gains Nominal, MULT_CLASS_1_POD_1_ZN_1_FLR_2,477.00,119.3,4.000,0.250,15.060,10.000,0.000,0.000,0.000,0.000,25.060,No
 Zone Internal Gains Nominal, MULT_CLASS_1_POD_2_ZN_1_FLR_1,477.00,119.3,4.000,0.250,15.060,10.000,0.000,0.000,0.000,0.000,25.060,No
 Zone Internal Gains Nominal, MULT_CLASS_1_POD_2_ZN_1_FLR_2,477.00,119.3,4.000,0.250,15.060,10.000,0.000,0.000,0.000,0.000,25.060,No
 Zone Internal Gains Nominal, MULT_CLASS_1_POD_3_ZN_1_FLR_1,477.00,119.3,4.000,0.250,15.060,10.000,0.000,0.000,0.000,0.000,25.060,No
 Zone Internal Gains Nominal, MULT_CLASS_1_POD_3_ZN_1_FLR_2,477.00,119.3,4.000,0.250,15.060,10.000,0.000,0.000,0.000,0.000,25.060,No
 Zone Internal Gains Nominal, MULT_CLASS_2_POD_1_ZN_1_FLR_1,477.00,119.3,4.000,0.250,15.060,10.000,0.000,0.000,0.000,0.000,25.060,No
 Zone Internal Gains Nominal, MULT_CLASS_2_POD_1_ZN_1_FLR_2,477.00,119.3,4.000,0.250,15.060,10.000,0.000,0.000,0.000,0.000,25.060,No
 Zone Internal Gains Nominal, MULT_CLASS_2_POD_2_ZN_1_FLR_1,477.00,119.3,4.000,0.250,15.060,10.000,0.000,0.000,0.000,0.000,25.060,No
 Zone Internal Gains Nominal, MULT_CLASS_2_POD_2_ZN_1_FLR_2,477.00,119.3,4.000,0.250,15.060,10.000,0.000,0.000,0.000,0.000,25.060,No
 Zone Internal Gains Nominal, MULT_CLASS_2_POD_3_ZN_1_FLR_1,477.00,119.3,4.000,0.250,15.060,10.000,0.000,0.000,0.000,0.000,25.060,No
 Zone Internal Gains Nominal, MULT_CLASS_2_POD_3_ZN_1_FLR_2,477.00,119.3,4.000,0.250,15.060,10.000,0.000,0.000,0.000,0.000,25.060,No
 Zone Internal Gains Nominal, OFFICES_ZN_1_FLR_1,532.00,26.6,20.000,5.000E-002,11.840,10.800,0.000,0.000,0.000,0.000,22.640,No
 Zone Internal Gains Nominal, OFFICES_ZN_1_FLR_2,532.00,26.6,20.000,5.000E-002,11.840,10.800,0.000,0.000,0.000,0.000,22.640,No
! <People Internal Gains Nominal>,Name,Schedule Name,Zone Name,Zone Floor Area {m2},# Zone Occupants,Number of People {},People/Floor Area {person/m2},Floor Area per person {m2/person},Fraction Radiant,Fraction Convected,Sensible Fraction Calculation,Activity level,ASHRAE 55 Warnings,Carbon Dioxide Generation Rate,Nominal Minimum Number of People,Nominal Maximum Number of People,MRT Calculation Type,Work Efficiency, Clothing Insulation Calculation Method,Clothing Insulation Calculation Method Schedule,Clothing,Air Velocity,Fanger Calculation,Pierce Calculation,KSU Calculation
 People Internal Gains Nominal, AUDITORIUM_ZN_1_FLR_1 PEOPLE,BLDG_OCC_SCH_AUDITORIUM,AUDITORIUM_ZN_1_FLR_1,988.00,988.0,988.0,1.000,1.000,0.300,0.700,AutoCalculate,ACTIVITY_SCH,No,3.8200E-008,0,939,Zone Averaged,WORK_EFF_SCH,Clothing Insulation Schedule,N/A,CLOTHING_SCH,AIR_VELO_SCH,Yes,No,No
 People Internal Gains Nominal, AUX_GYM_ZN_1_FLR_1 PEOPLE,BLDG_OCC_SCH_GYM,AUX_GYM_ZN_1_FLR_1,1248.00,374.8,374.8,0.300,3.330,0.300,0.700,AutoCalculate,ACTIVITY_SCH,No,3.8200E-008,0,356,Zone Averaged,WORK_EFF_SCH,Clothing Insulation Schedule,N/A,CLOTHING_SCH,AIR_VELO_SCH,Yes,No,No
 People Internal Gains Nominal, BATHROOMS_ZN_1_FLR_1 PEOPLE,BLDG_OCC_SCH,BATHROOMS_ZN_1_FLR_1,210.00,21.0,21.0,0.100,10.000,0.300,0.700,AutoCalculate,ACTIVITY_SCH,No,3.8200E-008,0,15,Zone Averaged,WORK_EFF_SCH,Clothing Insulation Schedule,N/A,CLOTHING_SCH,AIR_VELO_SCH,Yes,No,No
 People Internal Gains Nominal, BATHROOMS_ZN_1_FLR_2 PEOPLE,BLDG_OCC_SCH,BATHROOMS_ZN_1_FLR_2,210.00,21.0,21.0,0.100,10.000,0.300,0.700,AutoCalculate,ACTIVITY_SCH,No,3.8200E-008,0,15,Zone Averaged,WORK_EFF_SCH,Clothing Insulation Schedule,N/A,CLOTHING_SCH,AIR_VELO_SCH,Yes,No,No
 People Internal Gains Nominal, CAFETERIA_ZN_1_FLR_1 PEOPLE,BLDG_OCC_SCH_CAFETERIA,CAFETERIA_ZN_1_FLR_1,624.00,448.9,448.9,0.719,1.390,0.300,0.700,AutoCalculate,ACTIVITY_SCH,No,3.8200E-008,0,426,Zone Averaged,WORK_EFF_SCH,Clothing Insulation Schedule,N/A,CLOTHING_SCH,AIR_VELO_SCH,Yes,No,No
 People Internal Gains Nominal, CORNER_CLASS_1_POD_1_ZN_1_FLR_1 PEOPLE,BLDG_OCC_SCH,CORNER_CLASS_1_POD_1_ZN_1_FLR_1,99.00,24.8,24.8,0.250,4.000,0.300,0.700,AutoCalculate,ACTIVITY_SCH,No,3.8200E-008,0,17,Zone Averaged,WORK_EFF_SCH,Clothing Insulation Schedule,N/A,CLOTHING_SCH,AIR_VELO_SCH,Yes,No,No
 People Internal Gains Nominal, CORNER_CLASS_1_POD_1_ZN_1_FLR_2 PEOPLE,BLDG_OCC_SCH,CORNER_CLASS_1_POD_1_ZN_1_FLR_2,99.00,24.8,24.8,0.250,4.000,0.300,0.700,AutoCalculate,ACTIVITY_SCH,No,3.8200E-008,0,17,Zone Averaged,WORK_EFF_SCH,Clothing Insulation Schedule,N/A,CLOTHING_SCH,AIR_VELO_SCH,Yes,No,No
 People Internal Gains Nominal, CORNER_CLASS_1_POD_2_ZN_1_FLR_1 PEOPLE,BLDG_OCC_SCH,CORNER_CLASS_1_POD_2_ZN_1_FLR_1,99.00,24.8,24.8,0.250,4.000,0.300,0.700,AutoCalculate,ACTIVITY_SCH,No,3.8200E-008,0,17,Zone Averaged,WORK_EFF_SCH,Clothing Insulation Schedule,N/A,CLOTHING_SCH,AIR_VELO_SCH,Yes,No,No
 People Internal Gains Nominal, CORNER_CLASS_1_POD_2_ZN_1_FLR_2 PEOPLE,BLDG_OCC_SCH,CORNER_CLASS_1_POD_2_ZN_1_FLR_2,99.00,24.8,24.8,0.250,4.000,0.300,0.700,AutoCalculate,ACTIVITY_SCH,No,3.8200E-008,0,17,Zone Averaged,WORK_EFF_SCH,Clothing Insulation Schedule,N/A,CLOTHING_SCH,AIR_VELO_SCH,Yes,No,No
 People Internal Gains Nominal, CORNER_CLASS_1_POD_3_ZN_1_FLR_1 PEOPLE,BLDG_OCC_SCH,CORNER_CLASS_1_POD_3_ZN_1_FLR_1,99.00,24.8,24.8,0.250,4.000,0.300,0.700,AutoCalculate,ACTIVITY_SCH,No,3.8200E-008,0,17,Zone Averaged,WORK_EFF_SCH,Clothing Insulation Schedule,N/A,CLOTHING_SCH,AIR_VELO_SCH,Yes,No,No
 People Internal Gains Nominal, CORNER_CLASS_1_POD_3_ZN_1_FLR_2 PEOPLE,BLDG_OCC_SCH,CORNER_CLASS_1_POD_3_ZN_1_FLR_2,99.00,24.8,24.8,0.250,4.000,0.300,0.700,AutoCalculate,ACTIVITY_SCH,No,3.8200E-008,0,17,Zone Averaged,WORK_EFF_SCH,Clothing Insulation Schedule,N/A,CLOTHING_SCH,AIR_VELO_SCH,Yes,No,No
 People Internal Gains Nominal, CORNER_CLASS_2_POD_1_ZN_1_FLR_1 PEOPLE,BLDG_OCC_SCH,CORNER_CLASS_2_POD_1_ZN_1_FLR_1,99.00,24.8,24.8,0.250,4.000,0.300,0.700,AutoCalculate,ACTIVITY_SCH,No,3.8200E-008,0,17,Zone Averaged,WORK_EFF_SCH,Clothing Insulation Schedule,N/A,CLOTHING_SCH,AIR_VELO_SCH,Yes,No,No
 People Internal Gains Nominal, CORNER_CLASS_2_POD_1_ZN_1_FLR_2 PEOPLE,BLDG_OCC_SCH,CORNER_CLASS_2_POD_1_ZN_1_FLR_2,99.00,24.8,24.8,0.250,4.000,0.300,0.700,AutoCalculate,ACTIVITY_SCH,No,3.8200E-008,0,17,Zone Averaged,WORK_EFF_SCH,Clothing Insulation Schedule,N/A,CLOTHING_SCH,AIR_VELO_SCH,Yes,No,No
 People Internal Gains Nominal, CORNER_CLASS_2_POD_2_ZN_1_FLR_1 PEOPLE,BLDG_OCC_SCH,CORNER_CLASS_2_POD_2_ZN_1_FLR_1,99.00,24.8,24.8,0.250,4.000,0.300,0.700,AutoCalculate,ACTIVITY_SCH,No,3.8200E-008,0,17,Zone Averaged,WORK_EFF_SCH,Clothing Insulation Schedule,N/A,CLOTHING_SCH,AIR_VELO_SCH,Yes,No,No
 People Internal Gains Nominal, CORNER_CLASS_2_POD_2_ZN_1_FLR_2 PEOPLE,BLDG_OCC_SCH,CORNER_CLASS_2_POD_2_ZN_1_FLR_2,99.00,24.8,24.8,0.250,4.000,0.300,0.700,AutoCalculate,ACTIVITY_SCH,No,3.8200E-008,0,17,Zone Averaged,WORK_EFF_SCH,Clothing Insulation Schedule,N/A,CLOTHING_SCH,AIR_VELO_SCH,Yes,No,No
 People Internal Gains Nominal, CORNER_CLASS_2_POD_3_ZN_1_FLR_1 PEOPLE,BLDG_OCC_SCH,CORNER_CLASS_2_POD_3_ZN_1_FLR_1,99.00,24.8,24.8,0.250,4.000,0.300,0.700,AutoCalculate,ACTIVITY_SCH,No,3.8200E-008,0,17,Zone Averaged,WORK_EFF_SCH,Clothing Insulation Schedule,N/A,CLOTHING_SCH,AIR_VELO_SCH,Yes,No,No
 People Internal Gains Nominal, CORNER_CLASS_2_POD_3_ZN_1_FLR_2 PEOPLE,BLDG_OCC_SCH,CORNER_CLASS_2_POD_3_ZN_1_FLR_2,99.00,24.8,24.8,0.250,4.000,0.300,0.700,AutoCalculate,ACTIVITY_SCH,No,3.8200E-008,0,17,Zone Averaged,WORK_EFF_SCH,Clothing Insulation Schedule,N/A,CLOTHING_SCH,AIR_VELO_SCH,Yes,No,No
 People Internal Gains Nominal, CORRIDOR_POD_1_ZN_1_FLR_1 PEOPLE,BLDG_OCC_SCH,CORRIDOR_POD_1_ZN_1_FLR_1,320.00,32.0,32.0,0.100,10.000,0.300,0.700,AutoCalculate,ACTIVITY_SCH,No,3.8200E-008,0,22,Zone Averaged,WORK_EFF_SCH,Clothing Insulation Schedule,N/A,CLOTHING_SCH,AIR_VELO_SCH,Yes,No,No
 People Internal Gains Nominal, CORRIDOR_POD_1_ZN_1_FLR_2 PEOPLE,BLDG_OCC_SCH,CORRIDOR_POD_1_ZN_1_FLR_2,320.00,32.0,32.0,0.100,10.000,0.300,0.700,AutoCalculate,ACTIVITY_SCH,No,3.8200E-008,0,22,Zone Averaged,WORK_EFF_SCH,Clothing Insulation Schedule,N/A,CLOTHING_SCH,AIR_VELO_SCH,Yes,No,No
 People Internal Gains Nominal, CORRIDOR_POD_2_ZN_1_FLR_1 PEOPLE,BLDG_OCC_SCH,CORRIDOR_POD_2_ZN_1_FLR_1,320.00,32.0,32.0,0.100,10.000,0.300,0.700,AutoCalculate,ACTIVITY_SCH,No,3.8200E-008,0,22,Zone Averaged,WORK_EFF_SCH,Clothing Insulation Schedule,N/A,CLOTHING_SCH,AIR_VELO_SCH,Yes,No,No
 People Internal Gains Nominal, CORRIDOR_POD_2_ZN_1_FLR_2 PEOPLE,BLDG_OCC_SCH,CORRIDOR_POD_2_ZN_1_FLR_2,320.00,32.0,32.0,0.100,10.000,0.300,0.700,AutoCalculate,ACTIVITY_SCH,No,3.8200E-008,0,22,Zone Averaged,WORK_EFF_SCH,Clothing Insulation Schedule,N/A,CLOTHING_SCH,AIR_VELO_SCH,Yes,No,No
 People Internal Gains Nominal, CORRIDOR_POD_3_ZN_1_FLR_1 PEOPLE,BLDG_OCC_SCH,CORRIDOR_POD_3_ZN_1_FLR_1,320.00,32.0,32.0,0.100,10.000,0.300,0.700,AutoCalculate,ACTIVITY_SCH,No,3.8200E-008,0,22,Zone Averaged,WORK_EFF_SCH,Clothing Insulation Schedule,N/A,CLOTHING_SCH,AIR_VELO_SCH,Yes,No,No
 People Internal Gains Nominal, CORRIDOR_POD_3_ZN_1_FLR_2 PEOPLE,BLDG_OCC_SCH,CORRIDOR_POD_3_ZN_1_FLR_2,320.00,32.0,32.0,0.100,10.000,0.300,0.700,AutoCalculate,ACTIVITY_SCH,No,3.8200E-008,0,22,Zone Averaged,WORK_EFF_SCH,Clothing Insulation Schedule,N/A,CLOTHING_SCH,AIR_VELO_SCH,Yes,No,No
 People Internal Gains Nominal, GYM_ZN_1_FLR_1 PEOPLE,BLDG_OCC_SCH_GYM,GYM_ZN_1_FLR_1,1976.00,1976.0,1976.0,1.000,1.000,0.300,0.700,AutoCalculate,ACTIVITY_SCH,No,3.8200E-008,0,1877,Zone Averaged,WORK_EFF_SCH,Clothing Insulation Schedule,N/A,CLOTHING_SCH,AIR_VELO_SCH,Yes,No,No
 People Internal Gains Nominal, KITCHEN_ZN_1_FLR_1 PEOPLE,BLDG_OCC_SCH,KITCHEN_ZN_1_FLR_1,216.00,32.4,32.4,0.150,6.667,0.300,0.700,AutoCalculate,ACTIVITY_SCH,No,3.8200E-008,0,23,Zone Averaged,WORK_EFF_SCH,Clothing Insulation Schedule,N/A,CLOTHING_SCH,AIR_VELO_SCH,Yes,No,No
 People Internal Gains Nominal, LIBRARY_MEDIA_CENTER_ZN_1_FLR_2 PEOPLE,BLDG_OCC_SCH,LIBRARY_MEDIA_CENTER_ZN_1_FLR_2,840.00,193.1,193.1,0.230,4.350,0.300,0.700,AutoCalculate,ACTIVITY_SCH,No,3.8200E-008,0,135,Zone Averaged,WORK_EFF_SCH,Clothing Insulation Schedule,N/A,CLOTHING_SCH,AIR_VELO_SCH,Yes,No,No
 People Internal Gains Nominal, MECH_ZN_1_FLR_1 PEOPLE,BLDG_OCC_SCH,MECH_ZN_1_FLR_1,342.00,3.4,3.4,1.000E-002,100.000,0.300,0.700,AutoCalculate,ACTIVITY_SCH,No,3.8200E-008,0,2,Zone Averaged,WORK_EFF_SCH,Clothing Insulation Schedule,N/A,CLOTHING_SCH,AIR_VELO_SCH,Yes,No,No
 People Internal Gains Nominal, MECH_ZN_1_FLR_2 PEOPLE,BLDG_OCC_SCH,MECH_ZN_1_FLR_2,342.00,3.4,3.4,1.000E-002,100.000,0.300,0.700,AutoCalculate,ACTIVITY_SCH,No,3.8200E-008,0,2,Zone Averaged,WORK_EFF_SCH,Clothing Insulation Schedule,N/A,CLOTHING_SCH,AIR_VELO_SCH,Yes,No,No
 People Internal Gains Nominal, MULT_CLASS_1_POD_1_ZN_1_FLR_1 PEOPLE,BLDG_OCC_SCH,MULT_CLASS_1_POD_1_ZN_1_FLR_1,477.00,119.3,119.3,0.250,4.000,0.300,0.700,AutoCalculate,ACTIVITY_SCH,No,3.8200E-008,0,83,Zone Averaged,WORK_EFF_SCH,Clothing Insulation Schedule,N/A,CLOTHING_SCH,AIR_VELO_SCH,Yes,No,No
 People Internal Gains Nominal, MULT_CLASS_1_POD_1_ZN_1_FLR_2 PEOPLE,BLDG_OCC_SCH,MULT_CLASS_1_POD_1_ZN_1_FLR_2,477.00,119.3,119.3,0.250,4.000,0.300,0.700,AutoCalculate,ACTIVITY_SCH,No,3.8200E-008,0,83,Zone Averaged,WORK_EFF_SCH,Clothing Insulation Schedule,N/A,CLOTHING_SCH,AIR_VELO_SCH,Yes,No,No
 People Internal Gains Nominal, MULT_CLASS_1_POD_2_ZN_1_FLR_1 PEOPLE,BLDG_OCC_SCH,MULT_CLASS_1_POD_2_ZN_1_FLR_1,477.00,119.3,119.3,0.250,4.000,0.300,0.700,AutoCalculate,ACTIVITY_SCH,No,3.8200E-008,0,83,Zone Averaged,WORK_EFF_SCH,Clothing Insulation Schedule,N/A,CLOTHING_SCH,AIR_VELO_SCH,Yes,No,No
 People Internal Gains Nominal, MULT_CLASS_1_POD_2_ZN_1_FLR_2 PEOPLE,BLDG_OCC_SCH,MULT_CLASS_1_POD_2_ZN_1_FLR_2,477.00,119.3,119.3,0.250,4.000,0.300,0.700,AutoCalculate,ACTIVITY_SCH,No,3.8200E-008,0,83,Zone Averaged,WORK_EFF_SCH,Clothing Insulation Schedule,N/A,CLOTHING_SCH,AIR_VELO_SCH,Yes,No,No
 People Internal Gains Nominal, MULT_CLASS_1_POD_3_ZN_1_FLR_1 PEOPLE,BLDG_OCC_SCH,MULT_CLASS_1_POD_3_ZN_1_FLR_1,477.00,119.3,119.3,0.250,4.000,0.300,0.700,AutoCalculate,ACTIVITY_SCH,No,3.8200E-008,0,83,Zone Averaged,WORK_EFF_SCH,Clothing Insulation Schedule,N/A,CLOTHING_SCH,AIR_VELO_SCH,Yes,No,No
 People Internal Gains Nominal, MULT_CLASS_1_POD_3_ZN_1_FLR_2 PEOPLE,BLDG_OCC_SCH_EXTEND,MULT_CLASS_1_POD_3_ZN_1_FLR_2,477.00,119.3,119.3,0.250,4.000,0.300,0.700,AutoCalculate,ACTIVITY_SCH,No,3.8200E-008,0,83,Zone Averaged,WORK_EFF_SCH,Clothing Insulation Schedule,N/A,CLOTHING_SCH,AIR_VELO_SCH,Yes,No,No
 People Internal Gains Nominal, MULT_CLASS_2_POD_1_ZN_1_FLR_1 PEOPLE,BLDG_OCC_SCH,MULT_CLASS_2_POD_1_ZN_1_FLR_1,477.00,119.3,119.3,0.250,4.000,0.300,0.700,AutoCalculate,ACTIVITY_SCH,No,3.8200E-008,0,83,Zone Averaged,WORK_EFF_SCH,Clothing Insulation Schedule,N/A,CLOTHING_SCH,AIR_VELO_SCH,Yes,No,No
 People Internal Gains Nominal, MULT_CLASS_2_POD_1_ZN_1_FLR_2 PEOPLE,BLDG_OCC_SCH,MULT_CLASS_2_POD_1_ZN_1_FLR_2,477.00,119.3,119.3,0.250,4.000,0.300,0.700,AutoCalculate,ACTIVITY_SCH,No,3.8200E-008,0,83,Zone Averaged,WORK_EFF_SCH,Clothing Insulation Schedule,N/A,CLOTHING_SCH,AIR_VELO_SCH,Yes,No,No
 People Internal Gains Nominal, MULT_CLASS_2_POD_2_ZN_1_FLR_1 PEOPLE,BLDG_OCC_SCH,MULT_CLASS_2_POD_2_ZN_1_FLR_1,477.00,119.3,119.3,0.250,4.000,0.300,0.700,AutoCalculate,ACTIVITY_SCH,No,3.8200E-008,0,83,Zone Averaged,WORK_EFF_SCH,Clothing Insulation Schedule,N/A,CLOTHING_SCH,AIR_VELO_SCH,Yes,No,No
 People Internal Gains Nominal, MULT_CLASS_2_POD_2_ZN_1_FLR_2 PEOPLE,BLDG_OCC_SCH,MULT_CLASS_2_POD_2_ZN_1_FLR_2,477.00,119.3,119.3,0.250,4.000,0.300,0.700,AutoCalculate,ACTIVITY_SCH,No,3.8200E-008,0,83,Zone Averaged,WORK_EFF_SCH,Clothing Insulation Schedule,N/A,CLOTHING_SCH,AIR_VELO_SCH,Yes,No,No
 People Internal Gains Nominal, MULT_CLASS_2_POD_3_ZN_1_FLR_1 PEOPLE,BLDG_OCC_SCH,MULT_CLASS_2_POD_3_ZN_1_FLR_1,477.00,119.3,119.3,0.250,4.000,0.300,0.700,AutoCalculate,ACTIVITY_SCH,No,3.8200E-008,0,83,Zone Averaged,WORK_EFF_SCH,Clothing Insulation Schedule,N/A,CLOTHING_SCH,AIR_VELO_SCH,Yes,No,No
 People Internal Gains Nominal, MULT_CLASS_2_POD_3_ZN_1_FLR_2 PEOPLE,BLDG_OCC_SCH_EXTEND,MULT_CLASS_2_POD_3_ZN_1_FLR_2,477.00,119.3,119.3,0.250,4.000,0.300,0.700,AutoCalculate,ACTIVITY_SCH,No,3.8200E-008,0,83,Zone Averaged,WORK_EFF_SCH,Clothing Insulation Schedule,N/A,CLOTHING_SCH,AIR_VELO_SCH,Yes,No,No
 People Internal Gains Nominal, OFFICES_ZN_1_FLR_1 PEOPLE,BLDG_OCC_SCH_OFFICES,OFFICES_ZN_1_FLR_1,532.00,26.6,26.6,5.000E-002,20.000,0.300,0.700,AutoCalculate,ACTIVITY_SCH,No,3.8200E-008,0,25,Zone Averaged,WORK_EFF_SCH,Clothing Insulation Schedule,N/A,CLOTHING_SCH,AIR_VELO_SCH,Yes,No,No
 People Internal Gains Nominal, OFFICES_ZN_1_FLR_2 PEOPLE,BLDG_OCC_SCH_OFFICES,OFFICES_ZN_1_FLR_2,532.00,26.6,26.6,5.000E-002,20.000,0.300,0.700,AutoCalculate,ACTIVITY_SCH,No,3.8200E-008,0,25,Zone Averaged,WORK_EFF_SCH,Clothing Insulation Schedule,N/A,CLOTHING_SCH,AIR_VELO_SCH,Yes,No,No
! <Lights Internal Gains Nominal>,Name,Schedule Name,Zone Name,Zone Floor Area {m2},# Zone Occupants,Lighting Level {W},Lights/Floor Area {W/m2},Lights per person {W/person},Fraction Return Air,Fraction Radiant,Fraction Short Wave,Fraction Convected,Fraction Replaceable,End-Use Category,Nominal Minimum Lighting Level {W},Nominal Maximum Lighting Level {W}
 Lights Internal Gains Nominal, AUDITORIUM_ZN_1_FLR_1_LIGHTS,BLDG_LIGHT_SCH,AUDITORIUM_ZN_1_FLR_1,988.00,988.0,9563.840,9.680,9.680,0.000,0.370,0.200,0.430,1.000,General,1695.669,8607.456
 Lights Internal Gains Nominal, AUX_GYM_ZN_1_FLR_1_LIGHTS,BLDG_LIGHT_SCH,AUX_GYM_ZN_1_FLR_1,1248.00,374.8,18794.880,15.060,50.150,0.000,0.370,0.200,0.430,1.000,General,3332.332,16915.392
 Lights Internal Gains Nominal, BATHROOMS_ZN_1_FLR_1_LIGHTS,BLDG_LIGHT_SCH,BATHROOMS_ZN_1_FLR_1,210.00,21.0,2032.800,9.680,96.800,0.000,0.370,0.200,0.430,1.000,General,360.415,1829.520
 Lights Internal Gains Nominal, BATHROOMS_ZN_1_FLR_2_LIGHTS,BLDG_LIGHT_SCH,BATHROOMS_ZN_1_FLR_2,210.00,21.0,2032.800,9.680,96.800,0.000,0.370,0.200,0.430,1.000,General,360.415,1829.520
 Lights Internal Gains Nominal, CAFETERIA_ZN_1_FLR_1_LIGHTS,BLDG_LIGHT_SCH,CAFETERIA_ZN_1_FLR_1,624.00,448.9,9397.440,15.060,20.933,0.000,0.370,0.200,0.430,1.000,General,1666.166,8457.696
 Lights Internal Gains Nominal, CORNER_CLASS_1_POD_1_ZN_1_FLR_1_LIGHTS,BLDG_LIGHT_SCH,CORNER_CLASS_1_POD_1_ZN_1_FLR_1,99.00,24.8,1490.940,15.060,60.240,0.000,0.370,0.200,0.430,1.000,General,264.344,1341.846
 Lights Internal Gains Nominal, CORNER_CLASS_1_POD_1_ZN_1_FLR_2_LIGHTS,BLDG_LIGHT_SCH,CORNER_CLASS_1_POD_1_ZN_1_FLR_2,99.00,24.8,1490.940,15.060,60.240,0.000,0.370,0.200,0.430,1.000,General,264.344,1341.846
 Lights Internal Gains Nominal, CORNER_CLASS_1_POD_2_ZN_1_FLR_1_LIGHTS,BLDG_LIGHT_SCH,CORNER_CLASS_1_POD_2_ZN_1_FLR_1,99.00,24.8,1490.940,15.060,60.240,0.000,0.370,0.200,0.430,1.000,General,264.344,1341.846
 Lights Internal Gains Nominal, CORNER_CLASS_1_POD_2_ZN_1_FLR_2_LIGHTS,BLDG_LIGHT_SCH,CORNER_CLASS_1_POD_2_ZN_1_FLR_2,99.00,24.8,1490.940,15.060,60.240,0.000,0.370,0.200,0.430,1.000,General,264.344,1341.846
 Lights Internal Gains Nominal, CORNER_CLASS_1_POD_3_ZN_1_FLR_1_LIGHTS,BLDG_LIGHT_SCH,CORNER_CLASS_1_POD_3_ZN_1_FLR_1,99.00,24.8,1490.940,15.060,60.240,0.000,0.370,0.200,0.430,1.000,General,264.344,1341.846
 Lights Internal Gains Nominal, CORNER_CLASS_1_POD_3_ZN_1_FLR_2_LIGHTS,BLDG_LIGHT_SCH,CORNER_CLASS_1_POD_3_ZN_1_FLR_2,99.00,24.8,1490.940,15.060,60.240,0.000,0.370,0.200,0.430,1.000,General,264.344,1341.846
 Lights Internal Gains Nominal, CORNER_CLASS_2_POD_1_ZN_1_FLR_1_LIGHTS,BLDG_LIGHT_SCH,CORNER_CLASS_2_POD_1_ZN_1_FLR_1,99.00,24.8,1490.940,15.060,60.240,0.000,0.370,0.200,0.430,1.000,General,264.344,1341.846
 Lights Internal Gains Nominal, CORNER_CLASS_2_POD_1_ZN_1_FLR_2_LIGHTS,BLDG_LIGHT_SCH,CORNER_CLASS_2_POD_1_ZN_1_FLR_2,99.00,24.8,1490.940,15.060,60.240,0.000,0.370,0.200,0.430,1.000,General,264.344,1341.846
 Lights Internal Gains Nominal, CORNER_CLASS_2_POD_2_ZN_1_FLR_1_LIGHTS,BLDG_LIGHT_SCH,CORNER_CLASS_2_POD_2_ZN_1_FLR_1,99.00,24.8,1490.940,15.060,60.240,0.000,0.370,0.200,0.430,1.000,General,264.344,1341.846
 Lights Internal Gains Nominal, CORNER_CLASS_2_POD_2_ZN_1_FLR_2_LIGHTS,BLDG_LIGHT_SCH,CORNER_CLASS_2_POD_2_ZN_1_FLR_2,99.00,24.8,1490.940,15.060,60.240,0.000,0.370,0.200,0.430,1.000,General,264.344,1341.846
 Lights Internal Gains Nominal, CORNER_CLASS_2_POD_3_ZN_1_FLR_1_LIGHTS,BLDG_LIGHT_SCH,CORNER_CLASS_2_POD_3_ZN_1_FLR_1,99.00,24.8,1490.940,15.060,60.240,0.000,0.370,0.200,0.430,1.000,General,264.344,1341.846
 Lights Internal Gains Nominal, CORNER_CLASS_2_POD_3_ZN_1_FLR_2_LIGHTS,BLDG_LIGHT_SCH,CORNER_CLASS_2_POD_3_ZN_1_FLR_2,99.00,24.8,1490.940,15.060,60.240,0.000,0.370,0.200,0.430,1.000,General,264.344,1341.846
 Lights Internal Gains Nominal, CORRIDOR_POD_1_ZN_1_FLR_1_LIGHTS,BLDG_LIGHT_SCH,CORRIDOR_POD_1_ZN_1_FLR_1,320.00,32.0,4819.200,15.060,150.600,0.000,0.370,0.200,0.430,1.000,General,854.444,4337.280
 Lights Internal Gains Nominal, CORRIDOR_POD_1_ZN_1_FLR_2_LIGHTS,BLDG_LIGHT_SCH,CORRIDOR_POD_1_ZN_1_FLR_2,320.00,32.0,1721.600,5.380,53.800,0.000,0.370,0.200,0.430,1.000,General,305.240,1549.440
 Lights Internal Gains Nominal, CORRIDOR_POD_2_ZN_1_FLR_1_LIGHTS,BLDG_LIGHT_SCH,CORRIDOR_POD_2_ZN_1_FLR_1,320.00,32.0,1721.600,5.380,53.800,0.000,0.370,0.200,0.430,1.000,General,305.240,1549.440
 Lights Internal Gains Nominal, CORRIDOR_POD_2_ZN_1_FLR_2_LIGHTS,BLDG_LIGHT_SCH,CORRIDOR_POD_2_ZN_1_FLR_2,320.00,32.0,1721.600,5.380,53.800,0.000,0.370,0.200,0.430,1.000,General,305.240,1549.440
 Lights Internal Gains Nominal, CORRIDOR_POD_3_ZN_1_FLR_1_LIGHTS,BLDG_LIGHT_SCH,CORRIDOR_POD_3_ZN_1_FLR_1,320.00,32.0,1721.600,5.380,53.800,0.000,0.370,0.200,0.430,1.000,General,305.240,1549.440
 Lights Internal Gains Nominal, CORRIDOR_POD_3_ZN_1_FLR_2_LIGHTS,BLDG_LIGHT_SCH,CORRIDOR_POD_3_ZN_1_FLR_2,320.00,32.0,1721.600,5.380,53.800,0.000,0.370,0.200,0.430,1.000,General,305.240,1549.440
 Lights Internal Gains Nominal, GYM_ZN_1_FLR_1_LIGHTS,BLDG_LIGHT_SCH,GYM_ZN_1_FLR_1,1976.00,1976.0,29758.560,15.060,15.060,0.000,0.370,0.200,0.430,1.000,General,5276.193,26782.704
 Lights Internal Gains Nominal, KITCHEN_ZN_1_FLR_1_LIGHTS,BLDG_LIGHT_SCH,KITCHEN_ZN_1_FLR_1,216.00,32.4,2788.560,12.910,86.067,0.000,0.370,0.200,0.430,1.000,General,494.412,2509.704
 Lights Internal Gains Nominal, LIBRARY_MEDIA_CENTER_ZN_1_FLR_2_LIGHTS,BLDG_LIGHT_SCH,LIBRARY_MEDIA_CENTER_ZN_1_FLR_2,840.00,193.1,11751.600,13.990,60.857,0.000,0.370,0.200,0.430,1.000,General,2083.559,10576.440
 Lights Internal Gains Nominal, LOBBY_ZN_1_FLR_1_LIGHTS,BLDG_LIGHT_SCH,LOBBY_ZN_1_FLR_1,210.00,0.0,2937.900,13.990,N/A,0.000,0.370,0.200,0.430,1.000,General,520.890,2644.110
 Lights Internal Gains Nominal, LOBBY_ZN_1_FLR_2_LIGHTS,BLDG_LIGHT_SCH,LOBBY_ZN_1_FLR_2,210.00,0.0,2937.900,13.990,N/A,0.000,0.370,0.200,0.430,1.000,General,520.890,2644.110
 Lights Internal Gains Nominal, MAIN_CORRIDOR_ZN_1_FLR_1_LIGHTS,BLDG_LIGHT_SCH,MAIN_CORRIDOR_ZN_1_FLR_1,1140.00,0.0,6133.200,5.380,N/A,0.000,0.370,0.200,0.430,1.000,General,1087.416,5519.880
 Lights Internal Gains Nominal, MAIN_CORRIDOR_ZN_1_FLR_2_LIGHTS,BLDG_LIGHT_SCH,MAIN_CORRIDOR_ZN_1_FLR_2,1140.00,0.0,6133.200,5.380,N/A,0.000,0.370,0.200,0.430,1.000,General,1087.416,5519.880
 Lights Internal Gains Nominal, MECH_ZN_1_FLR_1_LIGHTS,BLDG_LIGHT_SCH,MECH_ZN_1_FLR_1,342.00,3.4,5519.880,16.140,1614.000,0.000,0.370,0.200,0.430,1.000,General,978.675,4967.892
 Lights Internal Gains Nominal, MECH_ZN_1_FLR_2_LIGHTS,BLDG_LIGHT_SCH,MECH_ZN_1_FLR_2,342.00,3.4,5519.880,16.140,1614.000,0.000,0.370,0.200,0.430,1.000,General,978.675,4967.892
 Lights Internal Gains Nominal, MULT_CLASS_1_POD_1_ZN_1_FLR_1_LIGHTS,BLDG_LIGHT_SCH,MULT_CLASS_1_POD_1_ZN_1_FLR_1,477.00,119.3,7183.620,15.060,60.240,0.000,0.370,0.200,0.430,1.000,General,1273.656,6465.258
 Lights Internal Gains Nominal, MULT_CLASS_1_POD_1_ZN_1_FLR_2_LIGHTS,BLDG_LIGHT_SCH,MULT_CLASS_1_POD_1_ZN_1_FLR_2,477.00,119.3,7183.620,15.060,60.240,0.000,0.370,0.200,0.430,1.000,General,1273.656,6465.258
 Lights Internal Gains Nominal, MULT_CLASS_1_POD_2_ZN_1_FLR_1_LIGHTS,BLDG_LIGHT_SCH,MULT_CLASS_1_POD_2_ZN_1_FLR_1,477.00,119.3,7183.620,15.060,60.240,0.000,0.370,0.200,0.430,1.000,General,1273.656,6465.258
 Lights Internal Gains Nominal, MULT_CLASS_1_POD_2_ZN_1_FLR_2_LIGHTS,BLDG_LIGHT_SCH,MULT_CLASS_1_POD_2_ZN_1_FLR_2,477.00,119.3,7183.620,15.060,60.240,0.000,0.370,0.200,0.430,1.000,General,1273.656,6465.258
 Lights Internal Gains Nominal, MULT_CLASS_1_POD_3_ZN_1_FLR_1_LIGHTS,BLDG_LIGHT_SCH,MULT_CLASS_1_POD_3_ZN_1_FLR_1,477.00,119.3,7183.620,15.060,60.240,0.000,0.370,0.200,0.430,1.000,General,1273.656,6465.258
 Lights Internal Gains Nominal, MULT_CLASS_1_POD_3_ZN_1_FLR_2_LIGHTS,BLDG_LIGHT_SCH,MULT_CLASS_1_POD_3_ZN_1_FLR_2,477.00,119.3,7183.620,15.060,60.240,0.000,0.370,0.200,0.430,1.000,General,1273.656,6465.258
 Lights Internal Gains Nominal, MULT_CLASS_2_POD_1_ZN_1_FLR_1_LIGHTS,BLDG_LIGHT_SCH,MULT_CLASS_2_POD_1_ZN_1_FLR_1,477.00,119.3,7183.620,15.060,60.240,0.000,0.370,0.200,0.430,1.000,General,1273.656,6465.258
 Lights Internal Gains Nominal, MULT_CLASS_2_POD_1_ZN_1_FLR_2_LIGHTS,BLDG_LIGHT_SCH,MULT_CLASS_2_POD_1_ZN_1_FLR_2,477.00,119.3,7183.620,15.060,60.240,0.000,0.370,0.200,0.430,1.000,General,1273.656,6465.258
 Lights Internal Gains Nominal, MULT_CLASS_2_POD_2_ZN_1_FLR_1_LIGHTS,BLDG_LIGHT_SCH,MULT_CLASS_2_POD_2_ZN_1_FLR_1,477.00,119.3,7183.620,15.060,60.240,0.000,0.370,0.200,0.430,1.000,General,1273.656,6465.258
 Lights Internal Gains Nominal, MULT_CLASS_2_POD_2_ZN_1_FLR_2_LIGHTS,BLDG_LIGHT_SCH,MULT_CLASS_2_POD_2_ZN_1_FLR_2,477.00,119.3,7183.620,15.060,60.240,0.000,0.370,0.200,0.430,1.000,General,1273.656,6465.258
 Lights Internal Gains Nominal, MULT_CLASS_2_POD_3_ZN_1_FLR_1_LIGHTS,BLDG_LIGHT_SCH,MULT_CLASS_2_POD_3_ZN_1_FLR_1,477.00,119.3,7183.620,15.060,60.240,0.000,0.370,0.200,0.430,1.000,General,1273.656,6465.258
 Lights Internal Gains Nominal, MULT_CLASS_2_POD_3_ZN_1_FLR_2_LIGHTS,BLDG_LIGHT_SCH,MULT_CLASS_2_POD_3_ZN_1_FLR_2,477.00,119.3,7183.620,15.060,60.240,0.000,0.370,0.200,0.430,1.000,General,1273.656,6465.258
 Lights Internal Gains Nominal, OFFICES_ZN_1_FLR_1_LIGHTS,BLDG_LIGHT_SCH,OFFICES_ZN_1_FLR_1,532.00,26.6,6298.880,11.840,236.800,0.000,0.370,0.200,0.430,1.000,General,1116.791,5668.992
 Lights Internal Gains Nominal, OFFICES_ZN_1_FLR_2_LIGHTS,BLDG_LIGHT_SCH,OFFICES_ZN_1_FLR_2,532.00,26.6,6298.880,11.840,236.800,0.000,0.370,0.200,0.430,1.000,General,1116.791,5668.992
! <ElectricEquipment Internal Gains Nominal>,Name,Schedule Name,Zone Name,Zone Floor Area {m2},# Zone Occupants,Equipment Level {W},Equipment/Floor Area {W/m2},Equipment per person {W/person},Fraction Latent,Fraction Radiant,Fraction Lost,Fraction Convected,End-Use SubCategory,Nominal Minimum Equipment Level {W},Nominal Maximum Equipment Level {W}
 ElectricEquipment Internal Gains Nominal, AUDITORIUM_ZN_1_FLR_1_PLUGMISC_EQUIP,BLDG_EQUIP_SCH,AUDITORIUM_ZN_1_FLR_1,988.00,988.0,4940.000,5.000,5.000,0.000,0.500,0.000,0.500,General,1235.000,4693.000
 ElectricEquipment Internal Gains Nominal, AUX_GYM_ZN_1_FLR_1_PLUGMISC_EQUIP,BLDG_EQUIP_SCH,AUX_GYM_ZN_1_FLR_1,1248.00,374.8,6240.000,5.000,16.650,0.000,0.500,0.000,0.500,General,1560.000,5928.000
 ElectricEquipment Internal Gains Nominal, BATHROOMS_ZN_1_FLR_1_PLUGMISC_EQUIP,BLDG_EQUIP_SCH,BATHROOMS_ZN_1_FLR_1,210.00,21.0,840.000,4.000,40.000,0.000,0.500,0.000,0.500,General,210.000,798.000
 ElectricEquipment Internal Gains Nominal, BATHROOMS_ZN_1_FLR_2_PLUGMISC_EQUIP,BLDG_EQUIP_SCH,BATHROOMS_ZN_1_FLR_2,210.00,21.0,840.000,4.000,40.000,0.000,0.500,0.000,0.500,General,210.000,798.000
 ElectricEquipment Internal Gains Nominal, CAFETERIA_ZN_1_FLR_1_PLUGMISC_EQUIP,KITCHEN_ELEC_EQUIP_SCH,CAFETERIA_ZN_1_FLR_1,624.00,448.9,12018.240,19.260,26.771,0.000,0.500,0.000,0.500,General,1201.824,3004.560
 ElectricEquipment Internal Gains Nominal, CORNER_CLASS_1_POD_1_ZN_1_FLR_1_PLUGMISC_EQUIP,BLDG_EQUIP_SCH,CORNER_CLASS_1_POD_1_ZN_1_FLR_1,99.00,24.8,990.000,10.000,40.000,0.000,0.500,0.000,0.500,General,247.500,940.500
 ElectricEquipment Internal Gains Nominal, CORNER_CLASS_1_POD_1_ZN_1_FLR_2_PLUGMISC_EQUIP,BLDG_EQUIP_SCH,CORNER_CLASS_1_POD_1_ZN_1_FLR_2,99.00,24.8,990.000,10.000,40.000,0.000,0.500,0.000,0.500,General,247.500,940.500
 ElectricEquipment Internal Gains Nominal, CORNER_CLASS_1_POD_2_ZN_1_FLR_1_PLUGMISC_EQUIP,BLDG_EQUIP_SCH,CORNER_CLASS_1_POD_2_ZN_1_FLR_1,99.00,24.8,990.000,10.000,40.000,0.000,0.500,0.000,0.500,General,247.500,940.500
 ElectricEquipment Internal Gains Nominal, CORNER_CLASS_1_POD_2_ZN_1_FLR_2_PLUGMISC_EQUIP,BLDG_EQUIP_SCH,CORNER_CLASS_1_POD_2_ZN_1_FLR_2,99.00,24.8,990.000,10.000,40.000,0.000,0.500,0.000,0.500,General,247.500,940.500
 ElectricEquipment Internal Gains Nominal, CORNER_CLASS_1_POD_3_ZN_1_FLR_1_PLUGMISC_EQUIP,BLDG_EQUIP_SCH,CORNER_CLASS_1_POD_3_ZN_1_FLR_1,99.00,24.8,990.000,10.000,40.000,0.000,0.500,0.000,0.500,General,247.500,940.500
 ElectricEquipment Internal Gains Nominal, CORNER_CLASS_1_POD_3_ZN_1_FLR_2_PLUGMISC_EQUIP,BLDG_EQUIP_SCH,CORNER_CLASS_1_POD_3_ZN_1_FLR_2,99.00,24.8,990.000,10.000,40.000,0.000,0.500,0.000,0.500,General,247.500,940.500
 ElectricEquipment Internal Gains Nominal, CORNER_CLASS_2_POD_1_ZN_1_FLR_1_PLUGMISC_EQUIP,BLDG_EQUIP_SCH,CORNER_CLASS_2_POD_1_ZN_1_FLR_1,99.00,24.8,990.000,10.000,40.000,0.000,0.500,0.000,0.500,General,247.500,940.500
 ElectricEquipment Internal Gains Nominal, CORNER_CLASS_2_POD_1_ZN_1_FLR_2_PLUGMISC_EQUIP,BLDG_EQUIP_SCH,CORNER_CLASS_2_POD_1_ZN_1_FLR_2,99.00,24.8,990.000,10.000,40.000,0.000,0.500,0.000,0.500,General,247.500,940.500
 ElectricEquipment Internal Gains Nominal, CORNER_CLASS_2_POD_2_ZN_1_FLR_1_PLUGMISC_EQUIP,BLDG_EQUIP_SCH,CORNER_CLASS_2_POD_2_ZN_1_FLR_1,99.00,24.8,990.000,10.000,40.000,0.000,0.500,0.000,0.500,General,247.500,940.500
 ElectricEquipment Internal Gains Nominal, CORNER_CLASS_2_POD_2_ZN_1_FLR_2_PLUGMISC_EQUIP,BLDG_EQUIP_SCH,CORNER_CLASS_2_POD_2_ZN_1_FLR_2,99.00,24.8,990.000,10.000,40.000,0.000,0.500,0.000,0.500,General,247.500,940.500
 ElectricEquipment Internal Gains Nominal, CORNER_CLASS_2_POD_3_ZN_1_FLR_1_PLUGMISC_EQUIP,BLDG_EQUIP_SCH,CORNER_CLASS_2_POD_3_ZN_1_FLR_1,99.00,24.8,990.000,10.000,40.000,0.000,0.500,0.000,0.500,General,247.500,940.500
 ElectricEquipment Internal Gains Nominal, CORNER_CLASS_2_POD_3_ZN_1_FLR_2_PLUGMISC_EQUIP,BLDG_EQUIP_SCH,CORNER_CLASS_2_POD_3_ZN_1_FLR_2,99.00,24.8,990.000,10.000,40.000,0.000,0.500,0.000,0.500,General,247.500,940.500
 ElectricEquipment Internal Gains Nominal, CORRIDOR_POD_1_ZN_1_FLR_1_PLUGMISC_EQUIP,BLDG_EQUIP_SCH,CORRIDOR_POD_1_ZN_1_FLR_1,320.00,32.0,1280.000,4.000,40.000,0.000,0.500,0.000,0.500,General,320.000,1216.000
 ElectricEquipment Internal Gains Nominal, CORRIDOR_POD_1_ZN_1_FLR_2_PLUGMISC_EQUIP,BLDG_EQUIP_SCH,CORRIDOR_POD_1_ZN_1_FLR_2,320.00,32.0,1280.000,4.000,40.000,0.000,0.500,0.000,0.500,General,320.000,1216.000
 ElectricEquipment Internal Gains Nominal, CORRIDOR_POD_2_ZN_1_FLR_1_PLUGMISC_EQUIP,BLDG_EQUIP_SCH,CORRIDOR_POD_2_ZN_1_FLR_1,320.00,32.0,1280.000,4.000,40.000,0.000,0.500,0.000,0.500,General,320.000,1216.000
 ElectricEquipment Internal Gains Nominal, CORRIDOR_POD_2_ZN_1_FLR_2_PLUGMISC_EQUIP,BLDG_EQUIP_SCH,CORRIDOR_POD_2_ZN_1_FLR_2,320.00,32.0,1280.000,4.000,40.000,0.000,0.500,0.000,0.500,General,320.000,1216.000
 ElectricEquipment Internal Gains Nominal, CORRIDOR_POD_3_ZN_1_FLR_1_PLUGMISC_EQUIP,BLDG_EQUIP_SCH,CORRIDOR_POD_3_ZN_1_FLR_1,320.00,32.0,1280.000,4.000,40.000,0.000,0.500,0.000,0.500,General,320.000,1216.000
 ElectricEquipment Internal Gains Nominal, CORRIDOR_POD_3_ZN_1_FLR_2_PLUGMISC_EQUIP,BLDG_EQUIP_SCH,CORRIDOR_POD_3_ZN_1_FLR_2,320.00,32.0,1280.000,4.000,40.000,0.000,0.500,0.000,0.500,General,320.000,1216.000
 ElectricEquipment Internal Gains Nominal, GYM_ZN_1_FLR_1_PLUGMISC_EQUIP,BLDG_EQUIP_SCH,GYM_ZN_1_FLR_1,1976.00,1976.0,9880.000,5.000,5.000,0.000,0.500,0.000,0.500,General,2470.000,9386.000
 ElectricEquipment Internal Gains Nominal, KITCHEN_ZN_1_FLR_1_EXHFAN_EQUIP,KITCHEN_EXHAUST_SCH,KITCHEN_ZN_1_FLR_1,216.00,32.4,699.000,3.236,21.574,0.000,0.000,1.000,0.000,KitchenExhFan,0.000,699.000
 ElectricEquipment Internal Gains Nominal, KITCHEN_ZN_1_FLR_1_MISCELEC_EQUIP,KITCHEN_ELEC_EQUIP_SCH,KITCHEN_ZN_1_FLR_1,216.00,32.4,47994.000,222.194,1481.296,0.250,0.300,0.200,0.250,MiscElec,4799.400,11998.500
 ElectricEquipment Internal Gains Nominal, LIBRARY_MEDIA_CENTER_ZN_1_FLR_2_PLUGMISC_EQUIP,BLDG_EQUIP_SCH,LIBRARY_MEDIA_CENTER_ZN_1_FLR_2,840.00,193.1,8400.000,10.000,43.500,0.000,0.500,0.000,0.500,General,2100.000,7980.000
 ElectricEquipment Internal Gains Nominal, LOBBY_ZN_1_FLR_1_PLUGMISC_EQUIP,BLDG_EQUIP_SCH,LOBBY_ZN_1_FLR_1,210.00,0.0,840.000,4.000,N/A,0.000,0.500,0.000,0.500,General,210.000,798.000
 ElectricEquipment Internal Gains Nominal, LOBBY_ZN_1_FLR_2_PLUGMISC_EQUIP,BLDG_EQUIP_SCH,LOBBY_ZN_1_FLR_2,210.00,0.0,840.000,4.000,N/A,0.000,0.500,0.000,0.500,General,210.000,798.000
 ElectricEquipment Internal Gains Nominal, MAIN_CORRIDOR_ZN_1_FLR_1_PLUGMISC_EQUIP,BLDG_EQUIP_SCH,MAIN_CORRIDOR_ZN_1_FLR_1,1140.00,0.0,4560.000,4.000,N/A,0.000,0.500,0.000,0.500,General,1140.000,4332.000
 ElectricEquipment Internal Gains Nominal, MAIN_CORRIDOR_ZN_1_FLR_2_PLUGMISC_EQUIP,BLDG_EQUIP_SCH,MAIN_CORRIDOR_ZN_1_FLR_2,1140.00,0.0,4560.000,4.000,N/A,0.000,0.500,0.000,0.500,General,1140.000,4332.000
 ElectricEquipment Internal Gains Nominal, MECH_ZN_1_FLR_1_ELEVATORS_EQUIP,BLDG_ELEVATORS,MECH_ZN_1_FLR_1,342.00,3.4,32109.890,93.889,9388.857,0.000,0.500,0.000,0.500,Elevators,0.000,9632.967
 ElectricEquipment Internal Gains Nominal, MECH_ZN_1_FLR_1_PLUGMISC_EQUIP,BLDG_EQUIP_SCH,MECH_ZN_1_FLR_1,342.00,3.4,1368.000,4.000,400.000,0.000,0.500,0.000,0.500,General,342.000,1299.600
 ElectricEquipment Internal Gains Nominal, MECH_ZN_1_FLR_2_PLUGMISC_EQUIP,BLDG_EQUIP_SCH,MECH_ZN_1_FLR_2,342.00,3.4,1368.000,4.000,400.000,0.000,0.500,0.000,0.500,General,342.000,1299.600
 ElectricEquipment Internal Gains Nominal, MULT_CLASS_1_POD_1_ZN_1_FLR_1_PLUGMISC_EQUIP,BLDG_EQUIP_SCH,MULT_CLASS_1_POD_1_ZN_1_FLR_1,477.00,119.3,4770.000,10.000,40.000,0.000,0.500,0.000,0.500,General,1192.500,4531.500
 ElectricEquipment Internal Gains Nominal, MULT_CLASS_1_POD_1_ZN_1_FLR_2_PLUGMISC_EQUIP,BLDG_EQUIP_SCH,MULT_CLASS_1_POD_1_ZN_1_FLR_2,477.00,119.3,4770.000,10.000,40.000,0.000,0.500,0.000,0.500,General,1192.500,4531.500
 ElectricEquipment Internal Gains Nominal, MULT_CLASS_1_POD_2_ZN_1_FLR_1_PLUGMISC_EQUIP,BLDG_EQUIP_SCH,MULT_CLASS_1_POD_2_ZN_1_FLR_1,477.00,119.3,4770.000,10.000,40.000,0.000,0.500,0.000,0.500,General,1192.500,4531.500
 ElectricEquipment Internal Gains Nominal, MULT_CLASS_1_POD_2_ZN_1_FLR_2_PLUGMISC_EQUIP,BLDG_EQUIP_SCH,MULT_CLASS_1_POD_2_ZN_1_FLR_2,477.00,119.3,4770.000,10.000,40.000,0.000,0.500,0.000,0.500,General,1192.500,4531.500
 ElectricEquipment Internal Gains Nominal, MULT_CLASS_1_POD_3_ZN_1_FLR_1_PLUGMISC_EQUIP,BLDG_EQUIP_SCH,MULT_CLASS_1_POD_3_ZN_1_FLR_1,477.00,119.3,4770.000,10.000,40.000,0.000,0.500,0.000,0.500,General,1192.500,4531.500
 ElectricEquipment Internal Gains Nominal, MULT_CLASS_1_POD_3_ZN_1_FLR_2_PLUGMISC_EQUIP,BLDG_EQUIP_SCH,MULT_CLASS_1_POD_3_ZN_1_FLR_2,477.00,119.3,4770.000,10.000,40.000,0.000,0.500,0.000,0.500,General,1192.500,4531.500
 ElectricEquipment Internal Gains Nominal, MULT_CLASS_2_POD_1_ZN_1_FLR_1_PLUGMISC_EQUIP,BLDG_EQUIP_SCH,MULT_CLASS_2_POD_1_ZN_1_FLR_1,477.00,119.3,4770.000,10.000,40.000,0.000,0.500,0.000,0.500,General,1192.500,4531.500
 ElectricEquipment Internal Gains Nominal, MULT_CLASS_2_POD_1_ZN_1_FLR_2_PLUGMISC_EQUIP,BLDG_EQUIP_SCH,MULT_CLASS_2_POD_1_ZN_1_FLR_2,477.00,119.3,4770.000,10.000,40.000,0.000,0.500,0.000,0.500,General,1192.500,4531.500
 ElectricEquipment Internal Gains Nominal, MULT_CLASS_2_POD_2_ZN_1_FLR_1_PLUGMISC_EQUIP,BLDG_EQUIP_SCH,MULT_CLASS_2_POD_2_ZN_1_FLR_1,477.00,119.3,4770.000,10.000,40.000,0.000,0.500,0.000,0.500,General,1192.500,4531.500
 ElectricEquipment Internal Gains Nominal, MULT_CLASS_2_POD_2_ZN_1_FLR_2_PLUGMISC_EQUIP,BLDG_EQUIP_SCH,MULT_CLASS_2_POD_2_ZN_1_FLR_2,477.00,119.3,4770.000,10.000,40.000,0.000,0.500,0.000,0.500,General,1192.500,4531.500
 ElectricEquipment Internal Gains Nominal, MULT_CLASS_2_POD_3_ZN_1_FLR_1_PLUGMISC_EQUIP,BLDG_EQUIP_SCH,MULT_CLASS_2_POD_3_ZN_1_FLR_1,477.00,119.3,4770.000,10.000,40.000,0.000,0.500,0.000,0.500,General,1192.500,4531.500
 ElectricEquipment Internal Gains Nominal, MULT_CLASS_2_POD_3_ZN_1_FLR_2_PLUGMISC_EQUIP,BLDG_EQUIP_SCH,MULT_CLASS_2_POD_3_ZN_1_FLR_2,477.00,119.3,4770.000,10.000,40.000,0.000,0.500,0.000,0.500,General,1192.500,4531.500
 ElectricEquipment Internal Gains Nominal, OFFICES_ZN_1_FLR_1_PLUGMISC_EQUIP,BLDG_EQUIP_SCH,OFFICES_ZN_1_FLR_1,532.00,26.6,5745.600,10.800,216.000,0.000,0.500,0.000,0.500,General,1436.400,5458.320
 ElectricEquipment Internal Gains Nominal, OFFICES_ZN_1_FLR_2_PLUGMISC_EQUIP,BLDG_EQUIP_SCH,OFFICES_ZN_1_FLR_2,532.00,26.6,5745.600,10.800,216.000,0.000,0.500,0.000,0.500,General,1436.400,5458.320
! <GasEquipment Internal Gains Nominal>,Name,Schedule Name,Zone Name,Zone Floor Area {m2},# Zone Occupants,Equipment Level {W},Equipment/Floor Area {W/m2},Equipment per person {W/person},Fraction Latent,Fraction Radiant,Fraction Lost,Fraction Convected,End-Use SubCategory,Nominal Minimum Equipment Level {W},Nominal Maximum Equipment Level {W}
 GasEquipment Internal Gains Nominal, KITCHEN_ZN_1_FLR_1_MISCGAS_EQUIP,KITCHEN_GAS_EQUIP_SCH,KITCHEN_ZN_1_FLR_1,216.00,32.4,241713.000,1119.042,7460.278,0.100,0.200,0.700,0.000,MiscGas,4834.260,48342.600
! <Shadowing/Sun Position Calculations Annual Simulations>, Calculation Method, Value {days}, Allowable Number Figures in Shadow Overlap {}, Polygon Clipping Algorithm, Sky Diffuse Modeling Algorithm
Shadowing/Sun Position Calculations Annual Simulations,AverageOverDaysInFrequency,7,15000,SutherlandHodgman,SimpleSkyDiffuseModeling,InternalCalculation,No
! <#Refrigeration Compressor Racks>,Number of Refrigeration Compressor Racks
! <Refrigeration Compressor Rack>,Compressor Rack Name, # Refrigerated Cases Connected,# WalkIn Coolers Connected, Heat Rejection Location, Condenser Type, COP
!  <Refrigeration Case>,Refrigeration Case Number, Refrigeration Case Name,Zone Name,Zone Node #,Zone Node Name,Capacity (W/m),LHR,Temperature (C),Length (m),Fan (W/m),Installed Lighting (W/m),Anti-Sweat (W/m),Defrost (W/m)
#Refrigeration Compressor Racks, 2
 Refrigeration Compressor Rack,RACK1,1,0,Outdoors,Air-Cooled,1.500
   Refrigeration Case,1,KITCHEN_ZN_1_FLR_1_CASE:1_WALKINFREEZER,KITCHEN_ZN_1_FLR_1,301,KITCHEN_ZN_1_FLR_1 AIR NODE,734.0,0.10,-23.0,7.3,68.3,33.0,0.0,410.0
 Refrigeration Compressor Rack,RACK2,1,0,Outdoors,Air-Cooled,3.000
   Refrigeration Case,2,KITCHEN_ZN_1_FLR_1_CASE:2_SELFCONTAINEDDISPLAYCASE,KITCHEN_ZN_1_FLR_1,301,KITCHEN_ZN_1_FLR_1 AIR NODE,734.0,8.00E-002,2.0,7.3,55.0,33.0,0.0,0.0
! <Water Heater Information>,Type,Name,Volume {m3},Maximum Capacity {W},Standard Rated Recovery Efficiency, Standard Rated Energy Factor
! <ZoneInfiltration Airflow Stats Nominal>,Name,Schedule Name,Zone Name, Zone Floor Area {m2}, # Zone Occupants,Design Volume Flow Rate {m3/s},Volume Flow Rate/Floor Area {m3/s/m2},Volume Flow Rate/Exterior Surface Area {m3/s/m2},ACH - Air Changes per Hour,Equation A - Constant Term Coefficient {},Equation B - Temperature Term Coefficient {1/C},Equation C - Velocity Term Coefficient {s/m}, Equation D - Velocity Squared Term Coefficient {s2/m2}
 ZoneInfiltration Airflow Stats Nominal, AUDITORIUM_ZN_1_FLR_1_INFILTRATION,INFIL_SCH,AUDITORIUM_ZN_1_FLR_1,988.00,988.0,0.155,1.565E-004,1.031E-004,7.043E-002,1.000,0.000,0.000,0.000
 ZoneInfiltration Airflow Stats Nominal, AUX_GYM_ZN_1_FLR_1_INFILTRATION,INFIL_SCH,AUX_GYM_ZN_1_FLR_1,1248.00,374.8,0.184,1.471E-004,9.893E-005,6.621E-002,1.000,0.000,0.000,0.000
 ZoneInfiltration Airflow Stats Nominal, BATHROOMS_ZN_1_FLR_1_INFILTRATION,INFIL_SCH,BATHROOMS_ZN_1_FLR_1,210.00,21.0,3.503E-002,1.668E-004,3.020E-004,0.150,1.000,0.000,0.000,0.000
 ZoneInfiltration Airflow Stats Nominal, BATHROOMS_ZN_1_FLR_2_INFILTRATION,INFIL_SCH,BATHROOMS_ZN_1_FLR_2,210.00,21.0,3.503E-002,1.668E-004,1.075E-004,0.150,1.000,0.000,0.000,0.000
 ZoneInfiltration Airflow Stats Nominal, CAFETERIA_ZN_1_FLR_1_INFILTRATION,INFIL_SCH,CAFETERIA_ZN_1_FLR_1,624.00,448.9,6.040E-002,9.679E-005,3.020E-004,8.712E-002,1.000,0.000,0.000,0.000
 ZoneInfiltration Airflow Stats Nominal, CORNER_CLASS_1_POD_1_ZN_1_FLR_1_INFILTRATION,INFIL_SCH,CORNER_CLASS_1_POD_1_ZN_1_FLR_1,99.00,24.8,2.416E-002,2.440E-004,3.020E-004,0.220,1.000,0.000,0.000,0.000
 ZoneInfiltration Airflow Stats Nominal, CORNER_CLASS_1_POD_1_ZN_1_FLR_2_INFILTRATION,INFIL_SCH,CORNER_CLASS_1_POD_1_ZN_1_FLR_2,99.00,24.8,2.416E-002,2.440E-004,1.350E-004,0.220,1.000,0.000,0.000,0.000
 ZoneInfiltration Airflow Stats Nominal, CORNER_CLASS_1_POD_2_ZN_1_FLR_1_INFILTRATION,INFIL_SCH,CORNER_CLASS_1_POD_2_ZN_1_FLR_1,99.00,24.8,2.416E-002,2.440E-004,3.020E-004,0.220,1.000,0.000,0.000,0.000
 ZoneInfiltration Airflow Stats Nominal, CORNER_CLASS_1_POD_2_ZN_1_FLR_2_INFILTRATION,INFIL_SCH,CORNER_CLASS_1_POD_2_ZN_1_FLR_2,99.00,24.8,2.416E-002,2.440E-004,1.350E-004,0.220,1.000,0.000,0.000,0.000
 ZoneInfiltration Airflow Stats Nominal, CORNER_CLASS_1_POD_3_ZN_1_FLR_1_INFILTRATION,INFIL_SCH,CORNER_CLASS_1_POD_3_ZN_1_FLR_1,99.00,24.8,2.416E-002,2.440E-004,3.020E-004,0.220,1.000,0.000,0.000,0.000
 ZoneInfiltration Airflow Stats Nominal, CORNER_CLASS_1_POD_3_ZN_1_FLR_2_INFILTRATION,INFIL_SCH,CORNER_CLASS_1_POD_3_ZN_1_FLR_2,99.00,24.8,2.416E-002,2.440E-004,1.350E-004,0.220,1.000,0.000,0.000,0.000
 ZoneInfiltration Airflow Stats Nominal, CORNER_CLASS_2_POD_1_ZN_1_FLR_1_INFILTRATION,INFIL_SCH,CORNER_CLASS_2_POD_1_ZN_1_FLR_1,99.00,24.8,2.416E-002,2.440E-004,3.020E-004,0.220,1.000,0.000,0.000,0.000
 ZoneInfiltration Airflow Stats Nominal, CORNER_CLASS_2_POD_1_ZN_1_FLR_2_INFILTRATION,INFIL_SCH,CORNER_CLASS_2_POD_1_ZN_1_FLR_2,99.00,24.8,2.416E-002,2.440E-004,1.350E-004,0.220,1.000,0.000,0.000,0.000
 ZoneInfiltration Airflow Stats Nominal, CORNER_CLASS_2_POD_2_ZN_1_FLR_1_INFILTRATION,INFIL_SCH,CORNER_CLASS_2_POD_2_ZN_1_FLR_1,99.00,24.8,2.416E-002,2.440E-004,3.020E-004,0.220,1.000,0.000,0.000,0.000
 ZoneInfiltration Airflow Stats Nominal, CORNER_CLASS_2_POD_2_ZN_1_FLR_2_INFILTRATION,INFIL_SCH,CORNER_CLASS_2_POD_2_ZN_1_FLR_2,99.00,24.8,2.416E-002,2.440E-004,1.350E-004,0.220,1.000,0.000,0.000,0.000
 ZoneInfiltration Airflow Stats Nominal, CORNER_CLASS_2_POD_3_ZN_1_FLR_1_INFILTRATION,INFIL_SCH,CORNER_CLASS_2_POD_3_ZN_1_FLR_1,99.00,24.8,2.416E-002,2.440E-004,3.020E-004,0.220,1.000,0.000,0.000,0.000
 ZoneInfiltration Airflow Stats Nominal, CORNER_CLASS_2_POD_3_ZN_1_FLR_2_INFILTRATION,INFIL_SCH,CORNER_CLASS_2_POD_3_ZN_1_FLR_2,99.00,24.8,2.416E-002,2.440E-004,1.350E-004,0.220,1.000,0.000,0.000,0.000
 ZoneInfiltration Airflow Stats Nominal, CORRIDOR_POD_1_ZN_1_FLR_1_INFILTRATION,INFIL_SCH,CORRIDOR_POD_1_ZN_1_FLR_1,320.00,32.0,6.040E-003,1.888E-005,3.020E-004,1.699E-002,1.000,0.000,0.000,0.000
 ZoneInfiltration Airflow Stats Nominal, CORRIDOR_POD_1_ZN_1_FLR_2_INFILTRATION,INFIL_SCH,CORRIDOR_POD_1_ZN_1_FLR_2,320.00,32.0,6.040E-003,1.888E-005,1.776E-005,1.699E-002,1.000,0.000,0.000,0.000
 ZoneInfiltration Airflow Stats Nominal, CORRIDOR_POD_2_ZN_1_FLR_1_INFILTRATION,INFIL_SCH,CORRIDOR_POD_2_ZN_1_FLR_1,320.00,32.0,6.040E-003,1.888E-005,3.020E-004,1.699E-002,1.000,0.000,0.000,0.000
 ZoneInfiltration Airflow Stats Nominal, CORRIDOR_POD_2_ZN_1_FLR_2_INFILTRATION,INFIL_SCH,CORRIDOR_POD_2_ZN_1_FLR_2,320.00,32.0,6.040E-003,1.888E-005,1.776E-005,1.699E-002,1.000,0.000,0.000,0.000
 ZoneInfiltration Airflow Stats Nominal, CORRIDOR_POD_3_ZN_1_FLR_1_INFILTRATION,INFIL_SCH,CORRIDOR_POD_3_ZN_1_FLR_1,320.00,32.0,6.040E-003,1.888E-005,3.020E-004,1.699E-002,1.000,0.000,0.000,0.000
 ZoneInfiltration Airflow Stats Nominal, CORRIDOR_POD_3_ZN_1_FLR_2_INFILTRATION,INFIL_SCH,CORRIDOR_POD_3_ZN_1_FLR_2,320.00,32.0,6.040E-003,1.888E-005,1.776E-005,1.699E-002,1.000,0.000,0.000,0.000
 ZoneInfiltration Airflow Stats Nominal, GYM_ZN_1_FLR_1_INFILTRATION,INFIL_SCH,GYM_ZN_1_FLR_1,1976.00,1976.0,0.615,3.111E-004,3.111E-004,0.140,1.000,0.000,0.000,0.000
 ZoneInfiltration Airflow Stats Nominal, KITCHEN_ZN_1_FLR_1_INFILTRATION,INFIL_SCH,KITCHEN_ZN_1_FLR_1,216.00,32.4,1.087E-002,5.033E-005,3.020E-004,4.530E-002,1.000,0.000,0.000,0.000
 ZoneInfiltration Airflow Stats Nominal, LIBRARY_MEDIA_CENTER_ZN_1_FLR_2_INFILTRATION,INFIL_SCH,LIBRARY_MEDIA_CENTER_ZN_1_FLR_2,840.00,193.1,7.127E-002,8.485E-005,6.624E-005,7.636E-002,1.000,0.000,0.000,0.000
 ZoneInfiltration Airflow Stats Nominal, LOBBY_ZN_1_FLR_1_INFILTRATION,INFIL_SCH,LOBBY_ZN_1_FLR_1,210.00,0.0,1.812E-002,8.629E-005,3.020E-004,7.766E-002,1.000,0.000,0.000,0.000
 ZoneInfiltration Airflow Stats Nominal, LOBBY_ZN_1_FLR_2_INFILTRATION,INFIL_SCH,LOBBY_ZN_1_FLR_2,210.00,0.0,1.812E-002,8.629E-005,6.711E-005,7.766E-002,1.000,0.000,0.000,0.000
 ZoneInfiltration Airflow Stats Nominal, MAIN_CORRIDOR_ZN_1_FLR_1_INFILTRATION,INFIL_SCH,MAIN_CORRIDOR_ZN_1_FLR_1,1140.00,0.0,6.040E-002,5.298E-005,3.020E-004,4.768E-002,1.000,0.000,0.000,0.000
 ZoneInfiltration Airflow Stats Nominal, MAIN_CORRIDOR_ZN_1_FLR_2_INFILTRATION,INFIL_SCH,MAIN_CORRIDOR_ZN_1_FLR_2,1140.00,0.0,6.040E-002,5.298E-005,4.507E-005,4.768E-002,1.000,0.000,0.000,0.000
 ZoneInfiltration Airflow Stats Nominal, MULT_CLASS_1_POD_1_ZN_1_FLR_1_INFILTRATION,INFIL_SCH,MULT_CLASS_1_POD_1_ZN_1_FLR_1,477.00,119.3,6.402E-002,1.342E-004,3.020E-004,0.121,1.000,0.000,0.000,0.000
 ZoneInfiltration Airflow Stats Nominal, MULT_CLASS_1_POD_1_ZN_1_FLR_2_INFILTRATION,INFIL_SCH,MULT_CLASS_1_POD_1_ZN_1_FLR_2,477.00,119.3,6.402E-002,1.342E-004,9.292E-005,0.121,1.000,0.000,0.000,0.000
 ZoneInfiltration Airflow Stats Nominal, MULT_CLASS_1_POD_2_ZN_1_FLR_1_INFILTRATION,INFIL_SCH,MULT_CLASS_1_POD_2_ZN_1_FLR_1,477.00,119.3,6.402E-002,1.342E-004,3.020E-004,0.121,1.000,0.000,0.000,0.000
 ZoneInfiltration Airflow Stats Nominal, MULT_CLASS_1_POD_2_ZN_1_FLR_2_INFILTRATION,INFIL_SCH,MULT_CLASS_1_POD_2_ZN_1_FLR_2,477.00,119.3,6.402E-002,1.342E-004,9.292E-005,0.121,1.000,0.000,0.000,0.000
 ZoneInfiltration Airflow Stats Nominal, MULT_CLASS_1_POD_3_ZN_1_FLR_1_INFILTRATION,INFIL_SCH,MULT_CLASS_1_POD_3_ZN_1_FLR_1,477.00,119.3,6.402E-002,1.342E-004,3.020E-004,0.121,1.000,0.000,0.000,0.000
 ZoneInfiltration Airflow Stats Nominal, MULT_CLASS_1_POD_3_ZN_1_FLR_2_INFILTRATION,INFIL_SCH,MULT_CLASS_1_POD_3_ZN_1_FLR_2,477.00,119.3,6.402E-002,1.342E-004,9.292E-005,0.121,1.000,0.000,0.000,0.000
 ZoneInfiltration Airflow Stats Nominal, MULT_CLASS_2_POD_1_ZN_1_FLR_1_INFILTRATION,INFIL_SCH,MULT_CLASS_2_POD_1_ZN_1_FLR_1,477.00,119.3,6.402E-002,1.342E-004,3.020E-004,0.121,1.000,0.000,0.000,0.000
 ZoneInfiltration Airflow Stats Nominal, MULT_CLASS_2_POD_1_ZN_1_FLR_2_INFILTRATION,INFIL_SCH,MULT_CLASS_2_POD_1_ZN_1_FLR_2,477.00,119.3,6.402E-002,1.342E-004,9.292E-005,0.121,1.000,0.000,0.000,0.000
 ZoneInfiltration Airflow Stats Nominal, MULT_CLASS_2_POD_2_ZN_1_FLR_1_INFILTRATION,INFIL_SCH,MULT_CLASS_2_POD_2_ZN_1_FLR_1,477.00,119.3,6.402E-002,1.342E-004,3.020E-004,0.121,1.000,0.000,0.000,0.000
 ZoneInfiltration Airflow Stats Nominal, MULT_CLASS_2_POD_2_ZN_1_FLR_2_INFILTRATION,INFIL_SCH,MULT_CLASS_2_POD_2_ZN_1_FLR_2,477.00,119.3,6.402E-002,1.342E-004,9.292E-005,0.121,1.000,0.000,0.000,0.000
 ZoneInfiltration Airflow Stats Nominal, MULT_CLASS_2_POD_3_ZN_1_FLR_1_INFILTRATION,INFIL_SCH,MULT_CLASS_2_POD_3_ZN_1_FLR_1,477.00,119.3,6.402E-002,1.342E-004,3.020E-004,0.121,1.000,0.000,0.000,0.000
 ZoneInfiltration Airflow Stats Nominal, MULT_CLASS_2_POD_3_ZN_1_FLR_2_INFILTRATION,INFIL_SCH,MULT_CLASS_2_POD_3_ZN_1_FLR_2,477.00,119.3,6.402E-002,1.342E-004,9.292E-005,0.121,1.000,0.000,0.000,0.000
 ZoneInfiltration Airflow Stats Nominal, OFFICES_ZN_1_FLR_1_INFILTRATION,INFIL_SCH,OFFICES_ZN_1_FLR_1,532.00,26.6,6.282E-002,1.181E-004,3.020E-004,0.106,1.000,0.000,0.000,0.000
 ZoneInfiltration Airflow Stats Nominal, OFFICES_ZN_1_FLR_2_INFILTRATION,INFIL_SCH,OFFICES_ZN_1_FLR_2,532.00,26.6,6.282E-002,1.181E-004,8.489E-005,0.106,1.000,0.000,0.000,0.000
! <Mixing Airflow Stats Nominal>,Name,Schedule Name,Zone Name, Zone Floor Area {m2}, # Zone Occupants,Design Volume Flow Rate {m3/s},Volume Flow Rate/Floor Area {m3/s/m2},Volume Flow Rate/person Area {m3/s/person},ACH - Air Changes per Hour,From/Source Zone,Delta Temperature {C}
 Mixing Airflow Stats Nominal, KITCHEN_ZN_1_FLR_1 EXHAUST FANMIXING_0,HVACOPERATIONSCHD,KITCHEN_ZN_1_FLR_1,216.00,32.4,1.629,7.541E-003,5.027E-002,6.787,CAFETERIA_ZN_1_FLR_1,0.00
! <AirFlow Model>, Simple
 AirFlow Model, Simple
! <RoomAir Model>, Zone Name, Mixing/Mundt/UCSDDV/UCSDCV/UCSDUFI/UCSDUFE/User Defined
RoomAir Model,AUDITORIUM_ZN_1_FLR_1,Mixing/Well-Stirred
RoomAir Model,AUX_GYM_ZN_1_FLR_1,Mixing/Well-Stirred
RoomAir Model,BATHROOMS_ZN_1_FLR_1,Mixing/Well-Stirred
RoomAir Model,BATHROOMS_ZN_1_FLR_2,Mixing/Well-Stirred
RoomAir Model,CAFETERIA_ZN_1_FLR_1,Mixing/Well-Stirred
RoomAir Model,CORNER_CLASS_1_POD_1_ZN_1_FLR_1,Mixing/Well-Stirred
RoomAir Model,CORNER_CLASS_1_POD_1_ZN_1_FLR_2,Mixing/Well-Stirred
RoomAir Model,CORNER_CLASS_1_POD_2_ZN_1_FLR_1,Mixing/Well-Stirred
RoomAir Model,CORNER_CLASS_1_POD_2_ZN_1_FLR_2,Mixing/Well-Stirred
RoomAir Model,CORNER_CLASS_1_POD_3_ZN_1_FLR_1,Mixing/Well-Stirred
RoomAir Model,CORNER_CLASS_1_POD_3_ZN_1_FLR_2,Mixing/Well-Stirred
RoomAir Model,CORNER_CLASS_2_POD_1_ZN_1_FLR_1,Mixing/Well-Stirred
RoomAir Model,CORNER_CLASS_2_POD_1_ZN_1_FLR_2,Mixing/Well-Stirred
RoomAir Model,CORNER_CLASS_2_POD_2_ZN_1_FLR_1,Mixing/Well-Stirred
RoomAir Model,CORNER_CLASS_2_POD_2_ZN_1_FLR_2,Mixing/Well-Stirred
RoomAir Model,CORNER_CLASS_2_POD_3_ZN_1_FLR_1,Mixing/Well-Stirred
RoomAir Model,CORNER_CLASS_2_POD_3_ZN_1_FLR_2,Mixing/Well-Stirred
RoomAir Model,CORRIDOR_POD_1_ZN_1_FLR_1,Mixing/Well-Stirred
RoomAir Model,CORRIDOR_POD_1_ZN_1_FLR_2,Mixing/Well-Stirred
RoomAir Model,CORRIDOR_POD_2_ZN_1_FLR_1,Mixing/Well-Stirred
RoomAir Model,CORRIDOR_POD_2_ZN_1_FLR_2,Mixing/Well-Stirred
RoomAir Model,CORRIDOR_POD_3_ZN_1_FLR_1,Mixing/Well-Stirred
RoomAir Model,CORRIDOR_POD_3_ZN_1_FLR_2,Mixing/Well-Stirred
RoomAir Model,GYM_ZN_1_FLR_1,Mixing/Well-Stirred
RoomAir Model,KITCHEN_ZN_1_FLR_1,Mixing/Well-Stirred
RoomAir Model,LIBRARY_MEDIA_CENTER_ZN_1_FLR_2,Mixing/Well-Stirred
RoomAir Model,LOBBY_ZN_1_FLR_1,Mixing/Well-Stirred
RoomAir Model,LOBBY_ZN_1_FLR_2,Mixing/Well-Stirred
RoomAir Model,MAIN_CORRIDOR_ZN_1_FLR_1,Mixing/Well-Stirred
RoomAir Model,MAIN_CORRIDOR_ZN_1_FLR_2,Mixing/Well-Stirred
RoomAir Model,MECH_ZN_1_FLR_1,Mixing/Well-Stirred
RoomAir Model,MECH_ZN_1_FLR_2,Mixing/Well-Stirred
RoomAir Model,MULT_CLASS_1_POD_1_ZN_1_FLR_1,Mixing/Well-Stirred
RoomAir Model,MULT_CLASS_1_POD_1_ZN_1_FLR_2,Mixing/Well-Stirred
RoomAir Model,MULT_CLASS_1_POD_2_ZN_1_FLR_1,Mixing/Well-Stirred
RoomAir Model,MULT_CLASS_1_POD_2_ZN_1_FLR_2,Mixing/Well-Stirred
RoomAir Model,MULT_CLASS_1_POD_3_ZN_1_FLR_1,Mixing/Well-Stirred
RoomAir Model,MULT_CLASS_1_POD_3_ZN_1_FLR_2,Mixing/Well-Stirred
RoomAir Model,MULT_CLASS_2_POD_1_ZN_1_FLR_1,Mixing/Well-Stirred
RoomAir Model,MULT_CLASS_2_POD_1_ZN_1_FLR_2,Mixing/Well-Stirred
RoomAir Model,MULT_CLASS_2_POD_2_ZN_1_FLR_1,Mixing/Well-Stirred
RoomAir Model,MULT_CLASS_2_POD_2_ZN_1_FLR_2,Mixing/Well-Stirred
RoomAir Model,MULT_CLASS_2_POD_3_ZN_1_FLR_1,Mixing/Well-Stirred
RoomAir Model,MULT_CLASS_2_POD_3_ZN_1_FLR_2,Mixing/Well-Stirred
RoomAir Model,OFFICES_ZN_1_FLR_1,Mixing/Well-Stirred
RoomAir Model,OFFICES_ZN_1_FLR_2,Mixing/Well-Stirred
! <AirflowNetwork Model:Control>, No Multizone or Distribution/Multizone with Distribution/Multizone without Distribution/Multizone with Distribution only during Fan Operation
AirflowNetwork Model:Control,NoMultizoneOrDistribution
! <Zone Volume Capacitance Multiplier>, Sensible Heat Capacity Multiplier, Moisture Capacity Multiplier, Carbon Dioxide Capacity Multiplier, Generic Contaminant Capacity Multiplier
Zone Volume Capacitance Multiplier,   1.000 ,   1.000,   1.000,   1.000
! <Load Timesteps in Zone Design Calculation Averaging Window>, Value
 Load Timesteps in Zone Design Calculation Averaging Window,    6
! <Heating Sizing Factor Information>, Sizing Factor ID, Value
 Heating Sizing Factor Information, Global,   1.5000    
 Heating Sizing Factor Information, Zone AUDITORIUM_ZN_1_FLR_1,   1.5000    
 Heating Sizing Factor Information, Zone AUX_GYM_ZN_1_FLR_1,   1.5000    
 Heating Sizing Factor Information, Zone BATHROOMS_ZN_1_FLR_1,   1.5000    
 Heating Sizing Factor Information, Zone BATHROOMS_ZN_1_FLR_2,   1.5000    
 Heating Sizing Factor Information, Zone CAFETERIA_ZN_1_FLR_1,   1.5000    
 Heating Sizing Factor Information, Zone CORNER_CLASS_1_POD_1_ZN_1_FLR_1,   1.5000    
 Heating Sizing Factor Information, Zone CORNER_CLASS_1_POD_1_ZN_1_FLR_2,   1.5000    
 Heating Sizing Factor Information, Zone CORNER_CLASS_1_POD_2_ZN_1_FLR_1,   1.5000    
 Heating Sizing Factor Information, Zone CORNER_CLASS_1_POD_2_ZN_1_FLR_2,   1.5000    
 Heating Sizing Factor Information, Zone CORNER_CLASS_1_POD_3_ZN_1_FLR_1,   1.5000    
 Heating Sizing Factor Information, Zone CORNER_CLASS_1_POD_3_ZN_1_FLR_2,   1.5000    
 Heating Sizing Factor Information, Zone CORNER_CLASS_2_POD_1_ZN_1_FLR_1,   1.5000    
 Heating Sizing Factor Information, Zone CORNER_CLASS_2_POD_1_ZN_1_FLR_2,   1.5000    
 Heating Sizing Factor Information, Zone CORNER_CLASS_2_POD_2_ZN_1_FLR_1,   1.5000    
 Heating Sizing Factor Information, Zone CORNER_CLASS_2_POD_2_ZN_1_FLR_2,   1.5000    
 Heating Sizing Factor Information, Zone CORNER_CLASS_2_POD_3_ZN_1_FLR_1,   1.5000    
 Heating Sizing Factor Information, Zone CORNER_CLASS_2_POD_3_ZN_1_FLR_2,   1.5000    
 Heating Sizing Factor Information, Zone CORRIDOR_POD_1_ZN_1_FLR_1,   1.5000    
 Heating Sizing Factor Information, Zone CORRIDOR_POD_1_ZN_1_FLR_2,   1.5000    
 Heating Sizing Factor Information, Zone CORRIDOR_POD_2_ZN_1_FLR_1,   1.5000    
 Heating Sizing Factor Information, Zone CORRIDOR_POD_2_ZN_1_FLR_2,   1.5000    
 Heating Sizing Factor Information, Zone CORRIDOR_POD_3_ZN_1_FLR_1,   1.5000    
 Heating Sizing Factor Information, Zone CORRIDOR_POD_3_ZN_1_FLR_2,   1.5000    
 Heating Sizing Factor Information, Zone GYM_ZN_1_FLR_1,   1.5000    
 Heating Sizing Factor Information, Zone KITCHEN_ZN_1_FLR_1,   1.5000    
 Heating Sizing Factor Information, Zone LIBRARY_MEDIA_CENTER_ZN_1_FLR_2,   1.5000    
 Heating Sizing Factor Information, Zone LOBBY_ZN_1_FLR_1,   1.5000    
 Heating Sizing Factor Information, Zone LOBBY_ZN_1_FLR_2,   1.5000    
 Heating Sizing Factor Information, Zone MAIN_CORRIDOR_ZN_1_FLR_1,   1.5000    
 Heating Sizing Factor Information, Zone MAIN_CORRIDOR_ZN_1_FLR_2,   1.5000    
 Heating Sizing Factor Information, Zone MECH_ZN_1_FLR_1,   1.5000    
 Heating Sizing Factor Information, Zone MECH_ZN_1_FLR_2,   1.5000    
 Heating Sizing Factor Information, Zone MULT_CLASS_1_POD_1_ZN_1_FLR_1,   1.5000    
 Heating Sizing Factor Information, Zone MULT_CLASS_1_POD_1_ZN_1_FLR_2,   1.5000    
 Heating Sizing Factor Information, Zone MULT_CLASS_1_POD_2_ZN_1_FLR_1,   1.5000    
 Heating Sizing Factor Information, Zone MULT_CLASS_1_POD_2_ZN_1_FLR_2,   1.5000    
 Heating Sizing Factor Information, Zone MULT_CLASS_1_POD_3_ZN_1_FLR_1,   1.5000    
 Heating Sizing Factor Information, Zone MULT_CLASS_1_POD_3_ZN_1_FLR_2,   1.5000    
 Heating Sizing Factor Information, Zone MULT_CLASS_2_POD_1_ZN_1_FLR_1,   1.5000    
 Heating Sizing Factor Information, Zone MULT_CLASS_2_POD_1_ZN_1_FLR_2,   1.5000    
 Heating Sizing Factor Information, Zone MULT_CLASS_2_POD_2_ZN_1_FLR_1,   1.5000    
 Heating Sizing Factor Information, Zone MULT_CLASS_2_POD_2_ZN_1_FLR_2,   1.5000    
 Heating Sizing Factor Information, Zone MULT_CLASS_2_POD_3_ZN_1_FLR_1,   1.5000    
 Heating Sizing Factor Information, Zone MULT_CLASS_2_POD_3_ZN_1_FLR_2,   1.5000    
 Heating Sizing Factor Information, Zone OFFICES_ZN_1_FLR_1,   1.5000    
 Heating Sizing Factor Information, Zone OFFICES_ZN_1_FLR_2,   1.5000    
! <Cooling Sizing Factor Information>, Sizing Factor ID, Value
 Cooling Sizing Factor Information, Global,   1.5000    
 Cooling Sizing Factor Information, Zone AUDITORIUM_ZN_1_FLR_1,   1.5000    
 Cooling Sizing Factor Information, Zone AUX_GYM_ZN_1_FLR_1,   1.5000    
 Cooling Sizing Factor Information, Zone BATHROOMS_ZN_1_FLR_1,   1.5000    
 Cooling Sizing Factor Information, Zone BATHROOMS_ZN_1_FLR_2,   1.5000    
 Cooling Sizing Factor Information, Zone CAFETERIA_ZN_1_FLR_1,   1.5000    
 Cooling Sizing Factor Information, Zone CORNER_CLASS_1_POD_1_ZN_1_FLR_1,   1.5000    
 Cooling Sizing Factor Information, Zone CORNER_CLASS_1_POD_1_ZN_1_FLR_2,   1.5000    
 Cooling Sizing Factor Information, Zone CORNER_CLASS_1_POD_2_ZN_1_FLR_1,   1.5000    
 Cooling Sizing Factor Information, Zone CORNER_CLASS_1_POD_2_ZN_1_FLR_2,   1.5000    
 Cooling Sizing Factor Information, Zone CORNER_CLASS_1_POD_3_ZN_1_FLR_1,   1.5000    
 Cooling Sizing Factor Information, Zone CORNER_CLASS_1_POD_3_ZN_1_FLR_2,   1.5000    
 Cooling Sizing Factor Information, Zone CORNER_CLASS_2_POD_1_ZN_1_FLR_1,   1.5000    
 Cooling Sizing Factor Information, Zone CORNER_CLASS_2_POD_1_ZN_1_FLR_2,   1.5000    
 Cooling Sizing Factor Information, Zone CORNER_CLASS_2_POD_2_ZN_1_FLR_1,   1.5000    
 Cooling Sizing Factor Information, Zone CORNER_CLASS_2_POD_2_ZN_1_FLR_2,   1.5000    
 Cooling Sizing Factor Information, Zone CORNER_CLASS_2_POD_3_ZN_1_FLR_1,   1.5000    
 Cooling Sizing Factor Information, Zone CORNER_CLASS_2_POD_3_ZN_1_FLR_2,   1.5000    
 Cooling Sizing Factor Information, Zone CORRIDOR_POD_1_ZN_1_FLR_1,   1.5000    
 Cooling Sizing Factor Information, Zone CORRIDOR_POD_1_ZN_1_FLR_2,   1.5000    
 Cooling Sizing Factor Information, Zone CORRIDOR_POD_2_ZN_1_FLR_1,   1.5000    
 Cooling Sizing Factor Information, Zone CORRIDOR_POD_2_ZN_1_FLR_2,   1.5000    
 Cooling Sizing Factor Information, Zone CORRIDOR_POD_3_ZN_1_FLR_1,   1.5000    
 Cooling Sizing Factor Information, Zone CORRIDOR_POD_3_ZN_1_FLR_2,   1.5000    
 Cooling Sizing Factor Information, Zone GYM_ZN_1_FLR_1,   1.5000    
 Cooling Sizing Factor Information, Zone KITCHEN_ZN_1_FLR_1,   1.5000    
 Cooling Sizing Factor Information, Zone LIBRARY_MEDIA_CENTER_ZN_1_FLR_2,   1.5000    
 Cooling Sizing Factor Information, Zone LOBBY_ZN_1_FLR_1,   1.5000    
 Cooling Sizing Factor Information, Zone LOBBY_ZN_1_FLR_2,   1.5000    
 Cooling Sizing Factor Information, Zone MAIN_CORRIDOR_ZN_1_FLR_1,   1.5000    
 Cooling Sizing Factor Information, Zone MAIN_CORRIDOR_ZN_1_FLR_2,   1.5000    
 Cooling Sizing Factor Information, Zone MECH_ZN_1_FLR_1,   1.5000    
 Cooling Sizing Factor Information, Zone MECH_ZN_1_FLR_2,   1.5000    
 Cooling Sizing Factor Information, Zone MULT_CLASS_1_POD_1_ZN_1_FLR_1,   1.5000    
 Cooling Sizing Factor Information, Zone MULT_CLASS_1_POD_1_ZN_1_FLR_2,   1.5000    
 Cooling Sizing Factor Information, Zone MULT_CLASS_1_POD_2_ZN_1_FLR_1,   1.5000    
 Cooling Sizing Factor Information, Zone MULT_CLASS_1_POD_2_ZN_1_FLR_2,   1.5000    
 Cooling Sizing Factor Information, Zone MULT_CLASS_1_POD_3_ZN_1_FLR_1,   1.5000    
 Cooling Sizing Factor Information, Zone MULT_CLASS_1_POD_3_ZN_1_FLR_2,   1.5000    
 Cooling Sizing Factor Information, Zone MULT_CLASS_2_POD_1_ZN_1_FLR_1,   1.5000    
 Cooling Sizing Factor Information, Zone MULT_CLASS_2_POD_1_ZN_1_FLR_2,   1.5000    
 Cooling Sizing Factor Information, Zone MULT_CLASS_2_POD_2_ZN_1_FLR_1,   1.5000    
 Cooling Sizing Factor Information, Zone MULT_CLASS_2_POD_2_ZN_1_FLR_2,   1.5000    
 Cooling Sizing Factor Information, Zone MULT_CLASS_2_POD_3_ZN_1_FLR_1,   1.5000    
 Cooling Sizing Factor Information, Zone MULT_CLASS_2_POD_3_ZN_1_FLR_2,   1.5000    
 Cooling Sizing Factor Information, Zone OFFICES_ZN_1_FLR_1,   1.5000    
 Cooling Sizing Factor Information, Zone OFFICES_ZN_1_FLR_2,   1.5000    
! <Zone Sizing Information>, Zone Name, Load Type, Calc Des Load {W}, User Des Load {W}, Calc Des Air Flow Rate {m3/s}, User Des Air Flow Rate {m3/s}, Design Day Name, Date/Time of Peak, Temperature at Peak {C}, Humidity Ratio at Peak {kgWater/kgDryAir}, Floor Area {m2}, # Occupants, Calc Outdoor Air Flow Rate {m3/s}, Calc DOAS Heat Addition Rate {W}
 Zone Sizing Information, AUDITORIUM_ZN_1_FLR_1, Cooling, 38169.33267, 57253.99901, 2.78966, 7.90400, BALTIMORE ANN CLG .4% CONDNS WB=>MDB, 7/21 18:10:00, 28.54400, 1.85424E-002, 988.00000, 988.00000, 7.90400, 0.00000
 Zone Sizing Information, AUDITORIUM_ZN_1_FLR_1, Heating, 30369.87585, 45554.81378, 0.85746, 7.90400, BALTIMORE ANN HTG 99.6% CONDNS DB, 1/21 06:10:00, -11.00000, 1.47100E-003, 988.00000, 988.00000, 7.90400, 0.00000
 Zone Sizing Information, AUX_GYM_ZN_1_FLR_1, Cooling, 46601.58339, 69902.37508, 3.40491, 5.10736, BALTIMORE ANN CLG .4% CONDNS WB=>MDB, 7/21 15:00:00, 31.30000, 1.85424E-002, 1248.00000, 374.77477, 3.74775, 0.00000
 Zone Sizing Information, AUX_GYM_ZN_1_FLR_1, Heating, 44472.02359, 66708.03538, 1.25562, 3.74775, BALTIMORE ANN HTG 99.6% CONDNS DB, 1/21 06:10:00, -11.00000, 1.47100E-003, 1248.00000, 374.77477, 3.74775, 0.00000
 Zone Sizing Information, BATHROOMS_ZN_1_FLR_1, Cooling, 2515.29456, 3772.94184, 0.18377, 0.52500, BALTIMORE ANN CLG .4% CONDNS WB=>MDB, 7/21 12:00:00, 29.94800, 1.85424E-002, 210.00000, 21.00000, 0.52500, 0.00000
 Zone Sizing Information, BATHROOMS_ZN_1_FLR_1, Heating, 9901.86829, 14852.80244, 0.27282, 0.52500, BALTIMORE ANN HTG 99.6% CONDNS DB, 1/21 07:00:00, -11.00000, 1.47100E-003, 210.00000, 21.00000, 0.52500, 0.00000
 Zone Sizing Information, BATHROOMS_ZN_1_FLR_2, Cooling, 5021.98531, 7532.97797, 0.36690, 0.55034, BALTIMORE ANN CLG .4% CONDNS WB=>MDB, 7/21 16:50:00, 29.98267, 1.85424E-002, 210.00000, 21.00000, 0.52500, 0.00000
 Zone Sizing Information, BATHROOMS_ZN_1_FLR_2, Heating, 13497.05606, 20245.58409, 0.37391, 0.56087, BALTIMORE ANN HTG 99.6% CONDNS DB, 1/21 07:00:00, -11.00000, 1.47100E-003, 210.00000, 21.00000, 0.52500, 0.00000
 Zone Sizing Information, CAFETERIA_ZN_1_FLR_1, Cooling, 14889.94987, 22334.92481, 1.08808, 4.48921, BALTIMORE ANN CLG .4% CONDNS WB=>MDB, 7/21 10:10:00, 27.60800, 1.85424E-002, 624.00000, 448.92086, 4.48921, 0.00000
 Zone Sizing Information, CAFETERIA_ZN_1_FLR_1, Heating, 9279.01281, 13918.51921, 0.26198, 4.48921, BALTIMORE ANN HTG 99.6% CONDNS DB, 1/21 06:10:00, -11.00000, 1.47100E-003, 624.00000, 448.92086, 4.48921, 0.00000
[...]
 Component Sizing Information, Controller:WaterCoil, VAV_OTHER_HEATC_CONTROLLER, Maximum Actuated Flow [m3/s], 2.75960E-003
 Component Sizing Information, Controller:OutdoorAir, VAV_POD_1_OA_CONTROLLER, Maximum Outdoor Air Flow Rate [m3/s], 8.35304
 Component Sizing Information, Controller:OutdoorAir, VAV_POD_1_OA_CONTROLLER, Minimum Outdoor Air Flow Rate [m3/s], 4.92800
 Component Sizing Information, Coil:Cooling:Water, VAV_POD_1_COOLC, Design Size Design Coil Load [W], 324663.15656
 Component Sizing Information, Coil:Cooling:Water, VAV_POD_1_COOLC, Design Size Design Water Flow Rate [m3/s], 1.15960E-002
 Component Sizing Information, Coil:Cooling:Water, VAV_POD_1_COOLC, Design Size Design Air Flow Rate [m3/s], 8.35304
 Component Sizing Information, Coil:Cooling:Water, VAV_POD_1_COOLC, Design Size Design Inlet Air Temperature [C], 27.65527
 Component Sizing Information, Coil:Cooling:Water, VAV_POD_1_COOLC, Design Size Design Inlet Water Temperature [C], 6.67000
 Component Sizing Information, Coil:Cooling:Water, VAV_POD_1_COOLC, Design Size Design Outlet Air Temperature [C], 12.80000
 Component Sizing Information, Coil:Cooling:Water, VAV_POD_1_COOLC, Design Size Design Inlet Air Humidity Ratio, 1.46707E-002
 Component Sizing Information, Coil:Cooling:Water, VAV_POD_1_COOLC, Design Size Design Outlet Air Humidity Ratio, 8.32274E-003
Water Cooling Coil Capacity Information,Coil:Cooling:Water,VAV_POD_1_COOLC,261984.50,169865.87,92118.63,0.65,32407.95,328.70
 Component Sizing Information, Coil:Heating:Water, VAV_POD_1_HEATC, Design Size Rated Capacity [W], 83534.71429
 Component Sizing Information, Coil:Heating:Water, VAV_POD_1_HEATC, Design Size Maximum Water Flow Rate [m3/s], 1.79843E-003
 Component Sizing Information, Coil:Heating:Water, VAV_POD_1_HEATC, Design Size U-Factor Times Area Value [W/K], 1169.62965
Water Heating Coil Capacity Information,Coil:Heating:Water,VAV_POD_1_HEATC,58949.11
 Component Sizing Information, Fan:VariableVolume, VAV_POD_1_FAN, Design Size Maximum Flow Rate [m3/s], 8.35304
 Component Sizing Information, Controller:WaterCoil, VAV_POD_1_COOLC_CONTROLLER, Maximum Actuated Flow [m3/s], 1.15960E-002
 Component Sizing Information, Controller:WaterCoil, VAV_POD_1_COOLC_CONTROLLER, Controller Convergence Tolerance, 4.10650E-005
 Component Sizing Information, Controller:WaterCoil, VAV_POD_1_HEATC_CONTROLLER, Maximum Actuated Flow [m3/s], 1.79843E-003
 Component Sizing Information, Controller:OutdoorAir, VAV_POD_2_OA_CONTROLLER, Maximum Outdoor Air Flow Rate [m3/s], 8.16439
 Component Sizing Information, Controller:OutdoorAir, VAV_POD_2_OA_CONTROLLER, Minimum Outdoor Air Flow Rate [m3/s], 4.92800
 Component Sizing Information, Coil:Cooling:Water, VAV_POD_2_COOLC, Design Size Design Coil Load [W], 321619.16777
 Component Sizing Information, Coil:Cooling:Water, VAV_POD_2_COOLC, Design Size Design Water Flow Rate [m3/s], 1.14873E-002
 Component Sizing Information, Coil:Cooling:Water, VAV_POD_2_COOLC, Design Size Design Air Flow Rate [m3/s], 8.16439
 Component Sizing Information, Coil:Cooling:Water, VAV_POD_2_COOLC, Design Size Design Inlet Air Temperature [C], 27.74212
 Component Sizing Information, Coil:Cooling:Water, VAV_POD_2_COOLC, Design Size Design Inlet Water Temperature [C], 6.67000
 Component Sizing Information, Coil:Cooling:Water, VAV_POD_2_COOLC, Design Size Design Outlet Air Temperature [C], 12.80000
 Component Sizing Information, Coil:Cooling:Water, VAV_POD_2_COOLC, Design Size Design Inlet Air Humidity Ratio, 1.48074E-002
 Component Sizing Information, Coil:Cooling:Water, VAV_POD_2_COOLC, Design Size Design Outlet Air Humidity Ratio, 8.32274E-003
Water Cooling Coil Capacity Information,Coil:Cooling:Water,VAV_POD_2_COOLC,257057.28,166488.07,90569.21,0.65,31842.51,322.96
 Component Sizing Information, Coil:Heating:Water, VAV_POD_2_HEATC, Design Size Rated Capacity [W], 81648.15567
 Component Sizing Information, Coil:Heating:Water, VAV_POD_2_HEATC, Design Size Maximum Water Flow Rate [m3/s], 1.75781E-003
 Component Sizing Information, Coil:Heating:Water, VAV_POD_2_HEATC, Design Size U-Factor Times Area Value [W/K], 1143.21458
Water Heating Coil Capacity Information,Coil:Heating:Water,VAV_POD_2_HEATC,57617.80
 Component Sizing Information, Fan:VariableVolume, VAV_POD_2_FAN, Design Size Maximum Flow Rate [m3/s], 8.16439
 Component Sizing Information, Controller:WaterCoil, VAV_POD_2_COOLC_CONTROLLER, Maximum Actuated Flow [m3/s], 1.14873E-002
 Component Sizing Information, Controller:WaterCoil, VAV_POD_2_COOLC_CONTROLLER, Controller Convergence Tolerance, 4.14536E-005
 Component Sizing Information, Controller:WaterCoil, VAV_POD_2_HEATC_CONTROLLER, Maximum Actuated Flow [m3/s], 1.75781E-003
 Component Sizing Information, Controller:OutdoorAir, VAV_POD_3_OA_CONTROLLER, Maximum Outdoor Air Flow Rate [m3/s], 8.78938
 Component Sizing Information, Controller:OutdoorAir, VAV_POD_3_OA_CONTROLLER, Minimum Outdoor Air Flow Rate [m3/s], 4.92800
 Component Sizing Information, Coil:Cooling:Water, VAV_POD_3_COOLC, Design Size Design Coil Load [W], 334541.69991
 Component Sizing Information, Coil:Cooling:Water, VAV_POD_3_COOLC, Design Size Design Water Flow Rate [m3/s], 1.19489E-002
 Component Sizing Information, Coil:Cooling:Water, VAV_POD_3_COOLC, Design Size Design Air Flow Rate [m3/s], 8.78938
 Component Sizing Information, Coil:Cooling:Water, VAV_POD_3_COOLC, Design Size Design Inlet Air Temperature [C], 27.46975
 Component Sizing Information, Coil:Cooling:Water, VAV_POD_3_COOLC, Design Size Design Inlet Water Temperature [C], 6.67000
 Component Sizing Information, Coil:Cooling:Water, VAV_POD_3_COOLC, Design Size Design Outlet Air Temperature [C], 12.80000
 Component Sizing Information, Coil:Cooling:Water, VAV_POD_3_COOLC, Design Size Design Inlet Air Humidity Ratio, 1.44821E-002
 Component Sizing Information, Coil:Cooling:Water, VAV_POD_3_COOLC, Design Size Design Outlet Air Humidity Ratio, 8.32274E-003
Water Cooling Coil Capacity Information,Coil:Cooling:Water,VAV_POD_3_COOLC,274036.36,177984.59,96051.77,0.65,33842.75,343.25
 Component Sizing Information, Coil:Heating:Water, VAV_POD_3_HEATC, Design Size Rated Capacity [W], 87898.36316
 Component Sizing Information, Coil:Heating:Water, VAV_POD_3_HEATC, Design Size Maximum Water Flow Rate [m3/s], 1.89237E-003
 Component Sizing Information, Coil:Heating:Water, VAV_POD_3_HEATC, Design Size U-Factor Times Area Value [W/K], 1230.72823
Water Heating Coil Capacity Information,Coil:Heating:Water,VAV_POD_3_HEATC,62028.47
 Component Sizing Information, Fan:VariableVolume, VAV_POD_3_FAN, Design Size Maximum Flow Rate [m3/s], 8.78938
 Component Sizing Information, Controller:WaterCoil, VAV_POD_3_COOLC_CONTROLLER, Maximum Actuated Flow [m3/s], 1.19489E-002
 Component Sizing Information, Controller:WaterCoil, VAV_POD_3_COOLC_CONTROLLER, Controller Convergence Tolerance, 3.98524E-005
 Component Sizing Information, Controller:WaterCoil, VAV_POD_3_HEATC_CONTROLLER, Maximum Actuated Flow [m3/s], 1.89237E-003
Water Heater Information,WaterHeater:Mixed,SWHSYS1 WATER HEATER,3.0000,845000.0,0.231,0.6798
 Component Sizing Information, PlantLoop, COOLSYS1, Maximum Loop Flow Rate [m3/s], 4.87553E-002
 Component Sizing Information, PlantLoop, COOLSYS1, Plant Loop Volume [m3], 5.85064
 Component Sizing Information, Pump:VariableSpeed, COOLSYS1 PUMP, Design Flow Rate [m3/s], 4.87553E-002
 Component Sizing Information, Pump:VariableSpeed, COOLSYS1 PUMP, Design Power Consumption [W], 12456.36195
 Component Sizing Information, Chiller:Electric:EIR, COOLSYS1 CHILLER, Design Size Reference Chilled Water Flow Rate [m3/s], 4.87553E-002
 Component Sizing Information, Chiller:Electric:EIR, COOLSYS1 CHILLER, Design Size Reference Capacity [W], 1365019.43071
 Component Sizing Information, Chiller:Electric:EIR, COOLSYS1 CHILLER, Design Size Reference Condenser Fluid Flow Rate  [m3/s], 155.61222
! <Chiller Standard Rating Information>, Component Type, Component Name, IPLV in SI Units {W/W}, IPLV in IP Units {Btu/W-h}
 Chiller Standard Rating Information, Chiller:Electric:EIR, COOLSYS1 CHILLER, 3.71, 12.64
 Component Sizing Information, PlantLoop, HEATSYS1, Maximum Loop Flow Rate [m3/s], 2.30699E-002
 Component Sizing Information, PlantLoop, HEATSYS1, Plant Loop Volume [m3], 2.76839
 Component Sizing Information, Pump:VariableSpeed, HEATSYS1 PUMP, Design Flow Rate [m3/s], 2.30699E-002
 Component Sizing Information, Pump:VariableSpeed, HEATSYS1 PUMP, Design Power Consumption [W], 5894.06676
 Component Sizing Information, Boiler:HotWater, HEATSYS1 BOILER, Design Size Nominal Capacity [W], 1075747.58166
 Component Sizing Information, Boiler:HotWater, HEATSYS1 BOILER, Design Size Design Water Flow Rate [m3/s], 2.30699E-002
 Component Sizing Information, PlantLoop, SWHSYS1, Maximum Loop Flow Rate [m3/s], 4.48820E-004
 Component Sizing Information, PlantLoop, SWHSYS1, Plant Loop Volume [m3], 5.38584E-002
 Component Sizing Information, Pump:VariableSpeed, SWHSYS1 PUMP, Design Flow Rate [m3/s], 4.48820E-004
 Component Sizing Information, Pump:VariableSpeed, SWHSYS1 PUMP, Design Power Consumption [W], 114.66776
 Component Sizing Information, WaterHeater:Mixed, SWHSYS1 WATER HEATER, Use Side Design Flow Rate [m3/s], 4.48820E-004
! <Environment>,Environment Name,Environment Type, Start Date, End Date, Start DayOfWeek, Duration {#days}, Source:Start DayOfWeek,  Use Daylight Saving, Use Holidays, Apply Weekend Holiday Rule,  Use Rain Values, Use Snow Values
! <Environment:Special Days>, Special Day Name, Special Day Type, Source, Start Date, Duration {#days}
! <Environment:Daylight Saving>, Daylight Saving Indicator, Source, Start Date, End Date
! <Environment:WarmupDays>, NumberofWarmupDays
Environment,BALTIMORE MD USA TMY2-93721 WMO#=724060,WeatherFileRunPeriod,01/01,12/31,Sunday,365,Use RunPeriod Specified Day,No,No,No,Yes,Yes
Environment:Daylight Saving,Yes,InputFile,03/12,11/05
Environment:Special Days,NEW YEARS DAY,Holiday,InputFile,01/01,  1
Environment:Special Days,VETERANS DAY,Holiday,InputFile,11/11,  1
Environment:Special Days,CHRISTMAS,Holiday,InputFile,12/25,  1
Environment:Special Days,INDEPENDENCE DAY,Holiday,InputFile,07/04,  1
Environment:Special Days,MLK DAY,Holiday,InputFile,01/16,  1
Environment:Special Days,PRESIDENTS DAY,Holiday,InputFile,02/20,  1
Environment:Special Days,MEMORIAL DAY,Holiday,InputFile,05/29,  1
Environment:Special Days,LABOR DAY,Holiday,InputFile,09/04,  1
Environment:Special Days,COLUMBUS DAY,Holiday,InputFile,10/09,  1
Environment:Special Days,THANKSGIVING,Holiday,InputFile,11/23,  1
Environment:WarmupDays, 25
! <Warmup Convergence Information>,Zone Name,Environment Type/Name,Average Warmup Temperature Difference {deltaC},Std Dev Warmup Temperature Difference {deltaC},Max Temperature Pass/Fail Convergence,Min Temperature Pass/Fail Convergence,Average Warmup Load Difference {W},Std Dev Warmup Load Difference {W},Heating Load Pass/Fail Convergence,Cooling Load Pass/Fail Convergence
 Warmup Convergence Information,AUDITORIUM_ZN_1_FLR_1,RunPeriod: BALTIMORE MD USA TMY2-93721 WMO#=724060,0.1453001856,0.1685479793,Pass,Pass,0.1016605365,0.3998529011,Fail,Pass
 Warmup Convergence Information,AUX_GYM_ZN_1_FLR_1,RunPeriod: BALTIMORE MD USA TMY2-93721 WMO#=724060,0.1142071630,0.1332012140,Pass,Pass,0.3442544910,1.0122306907,Pass,Pass
 Warmup Convergence Information,BATHROOMS_ZN_1_FLR_1,RunPeriod: BALTIMORE MD USA TMY2-93721 WMO#=724060,5.3969704188E-002,5.9616200733E-002,Pass,Pass,0.5157224325,0.4825957274,Pass,Pass
 Warmup Convergence Information,BATHROOMS_ZN_1_FLR_2,RunPeriod: BALTIMORE MD USA TMY2-93721 WMO#=724060,0.2955737124,0.3035229341,Pass,Pass,0.5496546300,0.4892499755,Pass,Pass
 Warmup Convergence Information,CAFETERIA_ZN_1_FLR_1,RunPeriod: BALTIMORE MD USA TMY2-93721 WMO#=724060,1.1412895963E-002,1.3154307816E-002,Pass,Pass,0.0000000000,0.0000000000,Pass,Pass
 Warmup Convergence Information,CORNER_CLASS_1_POD_1_ZN_1_FLR_1,RunPeriod: BALTIMORE MD USA TMY2-93721 WMO#=724060,0.1083018413,0.1459552638,Pass,Pass,0.5633356510,0.7765812605,Pass,Pass
 Warmup Convergence Information,CORNER_CLASS_1_POD_1_ZN_1_FLR_2,RunPeriod: BALTIMORE MD USA TMY2-93721 WMO#=724060,0.3697794191,0.3969620934,Pass,Pass,0.5406295505,0.4847634462,Pass,Pass
 Warmup Convergence Information,CORNER_CLASS_1_POD_2_ZN_1_FLR_1,RunPeriod: BALTIMORE MD USA TMY2-93721 WMO#=724060,0.1072530164,0.1452336472,Pass,Pass,0.6527785181,1.3509629521,Pass,Pass
 Warmup Convergence Information,CORNER_CLASS_1_POD_2_ZN_1_FLR_2,RunPeriod: BALTIMORE MD USA TMY2-93721 WMO#=724060,0.3707608049,0.3973948107,Pass,Pass,0.5416091808,0.4854105747,Pass,Pass
 Warmup Convergence Information,CORNER_CLASS_1_POD_3_ZN_1_FLR_1,RunPeriod: BALTIMORE MD USA TMY2-93721 WMO#=724060,0.1076614487,0.1457805008,Pass,Pass,0.6593642003,1.4446140799,Pass,Pass
 Warmup Convergence Information,CORNER_CLASS_1_POD_3_ZN_1_FLR_2,RunPeriod: BALTIMORE MD USA TMY2-93721 WMO#=724060,0.3711311883,0.3977826128,Pass,Pass,0.5413370580,0.4850571790,Pass,Pass
 Warmup Convergence Information,CORNER_CLASS_2_POD_1_ZN_1_FLR_1,RunPeriod: BALTIMORE MD USA TMY2-93721 WMO#=724060,0.1032539970,0.1458501696,Pass,Pass,0.5222162384,0.5073114740,Pass,Pass
 Warmup Convergence Information,CORNER_CLASS_2_POD_1_ZN_1_FLR_2,RunPeriod: BALTIMORE MD USA TMY2-93721 WMO#=724060,0.3849410073,0.4036595954,Pass,Pass,0.5425549832,0.4851388461,Pass,Pass
 Warmup Convergence Information,CORNER_CLASS_2_POD_2_ZN_1_FLR_1,RunPeriod: BALTIMORE MD USA TMY2-93721 WMO#=724060,0.1047134234,0.1485439242,Pass,Pass,0.5175911796,0.4961143567,Pass,Pass
 Warmup Convergence Information,CORNER_CLASS_2_POD_2_ZN_1_FLR_2,RunPeriod: BALTIMORE MD USA TMY2-93721 WMO#=724060,0.3860225639,0.4045213271,Pass,Pass,0.5430961419,0.4852249203,Pass,Pass
 Warmup Convergence Information,CORNER_CLASS_2_POD_3_ZN_1_FLR_1,RunPeriod: BALTIMORE MD USA TMY2-93721 WMO#=724060,0.1080660211,0.1522594517,Pass,Pass,0.5176685959,0.4990001024,Pass,Pass
 Warmup Convergence Information,CORNER_CLASS_2_POD_3_ZN_1_FLR_2,RunPeriod: BALTIMORE MD USA TMY2-93721 WMO#=724060,0.3867328764,0.4056692020,Pass,Pass,0.5435462505,0.4857604832,Pass,Pass
 Warmup Convergence Information,CORRIDOR_POD_1_ZN_1_FLR_1,RunPeriod: BALTIMORE MD USA TMY2-93721 WMO#=724060,6.1510941195E-002,4.3925422733E-002,Pass,Pass,0.4877294613,0.4960606324,Pass,Pass
 Warmup Convergence Information,CORRIDOR_POD_1_ZN_1_FLR_2,RunPeriod: BALTIMORE MD USA TMY2-93721 WMO#=724060,8.8701102531E-002,0.1047110632,Pass,Pass,0.5315735118,0.4830526482,Pass,Pass
 Warmup Convergence Information,CORRIDOR_POD_2_ZN_1_FLR_1,RunPeriod: BALTIMORE MD USA TMY2-93721 WMO#=724060,4.2363382339E-002,3.0433288931E-002,Pass,Pass,0.4872269221,0.4970773530,Pass,Pass
 Warmup Convergence Information,CORRIDOR_POD_2_ZN_1_FLR_2,RunPeriod: BALTIMORE MD USA TMY2-93721 WMO#=724060,9.4257313689E-002,0.1088981424,Pass,Pass,0.5310506042,0.4820881659,Pass,Pass
 Warmup Convergence Information,CORRIDOR_POD_3_ZN_1_FLR_1,RunPeriod: BALTIMORE MD USA TMY2-93721 WMO#=724060,4.2903036398E-002,3.0822947490E-002,Pass,Pass,0.4872476783,0.4970298207,Pass,Pass
 Warmup Convergence Information,CORRIDOR_POD_3_ZN_1_FLR_2,RunPeriod: BALTIMORE MD USA TMY2-93721 WMO#=724060,9.6631865644E-002,0.1112319447,Pass,Pass,0.5307735013,0.4825365082,Pass,Pass
 Warmup Convergence Information,GYM_ZN_1_FLR_1,RunPeriod: BALTIMORE MD USA TMY2-93721 WMO#=724060,4.8703918035E-002,0.1013406488,Pass,Pass,4.5536038844E-002,0.3219351559,Pass,Pass
 Warmup Convergence Information,KITCHEN_ZN_1_FLR_1,RunPeriod: BALTIMORE MD USA TMY2-93721 WMO#=724060,5.5512900979E-003,5.6595697574E-003,Pass,Pass,0.0000000000,0.0000000000,Pass,Pass
 Warmup Convergence Information,LIBRARY_MEDIA_CENTER_ZN_1_FLR_2,RunPeriod: BALTIMORE MD USA TMY2-93721 WMO#=724060,8.2595381127E-002,0.1134636304,Pass,Pass,3.4938904551,35.6916586118,Pass,Pass
 Warmup Convergence Information,LOBBY_ZN_1_FLR_1,RunPeriod: BALTIMORE MD USA TMY2-93721 WMO#=724060,5.0130820684E-002,3.4684702417E-002,Pass,Pass,0.4875211591,0.4964664636,Pass,Pass
 Warmup Convergence Information,LOBBY_ZN_1_FLR_2,RunPeriod: BALTIMORE MD USA TMY2-93721 WMO#=724060,0.1515305629,0.1725624679,Pass,Pass,0.5303874308,0.4822150148,Pass,Pass
 Warmup Convergence Information,MAIN_CORRIDOR_ZN_1_FLR_1,RunPeriod: BALTIMORE MD USA TMY2-93721 WMO#=724060,4.5702934828E-002,3.2370957367E-002,Pass,Pass,0.4873931112,0.4965470621,Pass,Pass
 Warmup Convergence Information,MAIN_CORRIDOR_ZN_1_FLR_2,RunPeriod: BALTIMORE MD USA TMY2-93721 WMO#=724060,0.1130820693,0.1256281952,Pass,Pass,0.5183328068,0.4786648338,Pass,Pass
 Warmup Convergence Information,MECH_ZN_1_FLR_1,RunPeriod: BALTIMORE MD USA TMY2-93721 WMO#=724060,0.1415946082,9.8338220360E-002,Pass,Pass,0.4897319918,0.4919256974,Pass,Pass
 Warmup Convergence Information,MECH_ZN_1_FLR_2,RunPeriod: BALTIMORE MD USA TMY2-93721 WMO#=724060,4.9785328490E-002,4.7167531946E-002,Pass,Pass,0.5148950844,0.4857632303,Pass,Pass
 Warmup Convergence Information,MULT_CLASS_1_POD_1_ZN_1_FLR_1,RunPeriod: BALTIMORE MD USA TMY2-93721 WMO#=724060,6.5700981838E-002,5.3597583143E-002,Pass,Pass,0.5018252162,0.4989917219,Pass,Pass
 Warmup Convergence Information,MULT_CLASS_1_POD_1_ZN_1_FLR_2,RunPeriod: BALTIMORE MD USA TMY2-93721 WMO#=724060,0.1800171937,0.2097097704,Pass,Pass,0.5272293992,0.4826060325,Pass,Pass
 Warmup Convergence Information,MULT_CLASS_1_POD_2_ZN_1_FLR_1,RunPeriod: BALTIMORE MD USA TMY2-93721 WMO#=724060,6.5162981545E-002,5.1857498719E-002,Pass,Pass,0.5001813650,0.4977980308,Pass,Pass
 Warmup Convergence Information,MULT_CLASS_1_POD_2_ZN_1_FLR_2,RunPeriod: BALTIMORE MD USA TMY2-93721 WMO#=724060,0.1815809811,0.2092239202,Pass,Pass,0.5272592307,0.4821982165,Pass,Pass
 Warmup Convergence Information,MULT_CLASS_1_POD_3_ZN_1_FLR_1,RunPeriod: BALTIMORE MD USA TMY2-93721 WMO#=724060,6.5022073814E-002,5.1881870421E-002,Pass,Pass,0.5001741893,0.4977433728,Pass,Pass
 Warmup Convergence Information,MULT_CLASS_1_POD_3_ZN_1_FLR_2,RunPeriod: BALTIMORE MD USA TMY2-93721 WMO#=724060,0.1818128964,0.2109083149,Pass,Pass,0.5272046295,0.4828254129,Pass,Pass
 Warmup Convergence Information,MULT_CLASS_2_POD_1_ZN_1_FLR_1,RunPeriod: BALTIMORE MD USA TMY2-93721 WMO#=724060,6.4195825475E-002,5.0360811836E-002,Pass,Pass,0.4978203073,0.4965537429,Pass,Pass
 Warmup Convergence Information,MULT_CLASS_2_POD_1_ZN_1_FLR_2,RunPeriod: BALTIMORE MD USA TMY2-93721 WMO#=724060,0.1957730104,0.2140208994,Pass,Pass,0.5311134369,0.4816808246,Pass,Pass
 Warmup Convergence Information,MULT_CLASS_2_POD_2_ZN_1_FLR_1,RunPeriod: BALTIMORE MD USA TMY2-93721 WMO#=724060,6.2796223828E-002,5.0254531101E-002,Pass,Pass,0.5009099570,0.4981469520,Pass,Pass
 Warmup Convergence Information,MULT_CLASS_2_POD_2_ZN_1_FLR_2,RunPeriod: BALTIMORE MD USA TMY2-93721 WMO#=724060,0.1971168523,0.2151222096,Pass,Pass,0.5314521398,0.4815367428,Pass,Pass
 Warmup Convergence Information,MULT_CLASS_2_POD_3_ZN_1_FLR_1,RunPeriod: BALTIMORE MD USA TMY2-93721 WMO#=724060,5.8705375149E-002,5.1030190238E-002,Pass,Pass,0.5077328018,0.5059510161,Pass,Pass
 Warmup Convergence Information,MULT_CLASS_2_POD_3_ZN_1_FLR_2,RunPeriod: BALTIMORE MD USA TMY2-93721 WMO#=724060,0.2005778863,0.2205103990,Pass,Pass,0.5321011631,0.4818886199,Pass,Pass
 Warmup Convergence Information,OFFICES_ZN_1_FLR_1,RunPeriod: BALTIMORE MD USA TMY2-93721 WMO#=724060,6.6749454449E-002,4.8332503670E-002,Pass,Pass,0.4996522606,0.4953800667,Pass,Pass
 Warmup Convergence Information,OFFICES_ZN_1_FLR_2,RunPeriod: BALTIMORE MD USA TMY2-93721 WMO#=724060,0.1488581532,0.1768039931,Pass,Pass,0.5189855551,0.4803560355,Pass,Pass
! <Program Control Information:Threads/Parallel Sims>, Threading Supported,Maximum Number of Threads, Env Set Threads (OMP_NUM_THREADS), EP Env Set Threads (EP_OMP_NUM_THREADS), IDF Set Threads, Number of Threads Used (Interior Radiant Exchange), Number Nominal Surfaces, Number Parallel Sims
Program Control:Threads/Parallel Sims, No,1, N/A, N/A, N/A, N/A, N/A, N/A
End of Data
