Program Version,EnergyPlus, Version 8.8.0-7c3bbe4830, YMD=2018.08.30 23:11
! <Version>, Version ID
 Version, 8.8
! <Timesteps per Hour>, #TimeSteps, Minutes per TimeStep {minutes}
 Timesteps per Hour,  4, 15
! <System Convergence Limits>, Minimum System TimeStep {minutes}, Max HVAC Iterations, Minimum Plant Iterations, Maximum Plant Iterations
 System Convergence Limits, 2, 25, 2, 8
! <Simulation Control>, Do Zone Sizing, Do System Sizing, Do Plant Sizing, Do Design Days, Do Weather Simulation, Do HVAC Sizing Simulation
 Simulation Control, Yes, Yes, Yes, No, Yes, No
! <Output Reporting Tolerances>, Tolerance for Time Heating Setpoint Not Met, Tolerance for Zone Cooling Setpoint Not Met Time
 Output Reporting Tolerances, 0.556, 0.556, 
! <Site:GroundTemperature:BuildingSurface>,Jan{C},Feb{C},Mar{C},Apr{C},May{C},Jun{C},Jul{C},Aug{C},Sep{C},Oct{C},Nov{C},Dec{C}
 Site:GroundTemperature:BuildingSurface,  19.71,  19.66,  19.71,  19.75,  20.49,  22.11,  22.46,  22.55,  22.17,  20.61,  20.05,  19.80
! <Site:GroundTemperature:FCfactorMethod>,Jan{C},Feb{C},Mar{C},Apr{C},May{C},Jun{C},Jul{C},Aug{C},Sep{C},Oct{C},Nov{C},Dec{C}
 Site:GroundTemperature:FCfactorMethod,   2.18,   1.16,   2.97,   5.81,  13.21,  18.93,  22.79,  23.96,  21.96,  17.52,  11.59,   6.09
! <Site:GroundTemperature:Shallow>,Jan{C},Feb{C},Mar{C},Apr{C},May{C},Jun{C},Jul{C},Aug{C},Sep{C},Oct{C},Nov{C},Dec{C}
 Site:GroundTemperature:Shallow,  13.00,  13.00,  13.00,  13.00,  13.00,  13.00,  13.00,  13.00,  13.00,  13.00,  13.00,  13.00
! <Site:GroundTemperature:Deep>,Jan{C},Feb{C},Mar{C},Apr{C},May{C},Jun{C},Jul{C},Aug{C},Sep{C},Oct{C},Nov{C},Dec{C}
 Site:GroundTemperature:Deep,  16.00,  16.00,  16.00,  16.00,  16.00,  16.00,  16.00,  16.00,  16.00,  16.00,  16.00,  16.00
! <Site:GroundReflectance>,Jan{dimensionless},Feb{dimensionless},Mar{dimensionless},Apr{dimensionless},May{dimensionless},Jun{dimensionless},Jul{dimensionless},Aug{dimensionless},Sep{dimensionless},Oct{dimensionless},Nov{dimensionless},Dec{dimensionless}
 Site:GroundReflectance,  0.20,  0.20,  0.20,  0.20,  0.20,  0.20,  0.20,  0.20,  0.20,  0.20,  0.20,  0.20
! <Site:GroundReflectance:SnowModifier>, Normal, Daylighting {dimensionless}
 Site:GroundReflectance:SnowModifier,   1.000,   1.000
! <Site:GroundReflectance:Snow>,Jan{dimensionless},Feb{dimensionless},Mar{dimensionless},Apr{dimensionless},May{dimensionless},Jun{dimensionless},Jul{dimensionless},Aug{dimensionless},Sep{dimensionless},Oct{dimensionless},Nov{dimensionless},Dec{dimensionless}
 Site:GroundReflectance:Snow,  0.20,  0.20,  0.20,  0.20,  0.20,  0.20,  0.20,  0.20,  0.20,  0.20,  0.20,  0.20
! <Site:GroundReflectance:Snow:Daylighting>,Jan{dimensionless},Feb{dimensionless},Mar{dimensionless},Apr{dimensionless},May{dimensionless},Jun{dimensionless},Jul{dimensionless},Aug{dimensionless},Sep{dimensionless},Oct{dimensionless},Nov{dimensionless},Dec{dimensionless}
 Site:GroundReflectance:Snow:Daylighting,  0.20,  0.20,  0.20,  0.20,  0.20,  0.20,  0.20,  0.20,  0.20,  0.20,  0.20,  0.20
! <Environment:Weather Station>,Wind Sensor Height Above Ground {m},Wind Speed Profile Exponent {},Wind Speed Profile Boundary Layer Thickness {m},Air Temperature Sensor Height Above Ground {m},Wind Speed Modifier Coefficient-Internal,Temperature Modifier Coefficient-Internal
Environment:Weather Station,10.000,0.140,270.000,1.500,1.586,9.750E-003
! <Site:Location>, Location Name, Latitude {N+/S- Deg}, Longitude {E+/W- Deg},  Time Zone Number {GMT+/-}, Elevation {m},  Standard Pressure at Elevation {Pa}, Standard RhoAir at Elevation
Site:Location,BALTIMORE MD USA TMY2-93721 WMO#=724060,39.18,-76.67,-5.00,47.00,100762,1.1976
! <Building Information>, Building Name,North Axis {deg},Terrain,  Loads Convergence Tolerance Value,Temperature Convergence Tolerance Value,  Solar Distribution,Maximum Number of Warmup Days,Minimum Number of Warmup Days
 Building Information,Ref Bldg Small Hotel New2004_v1.3_5.0,0.000,City,4.00000E-002,0.20000,FullInteriorAndExterior,25,6
! <Inside Convection Algorithm>, Algorithm {Simple | TARP | CeilingDiffuser | AdaptiveConvectionAlgorithm}
Inside Convection Algorithm,TARP
! <Outside Convection Algorithm>, Algorithm {SimpleCombined | TARP | MoWitt | DOE-2 | AdaptiveConvectionAlgorithm}
Outside Convection Algorithm,DOE-2
! <Sky Radiance Distribution>, Value {Anisotropic}
Sky Radiance Distribution,Anisotropic
! <Zone Air Solution Algorithm>, Value {ThirdOrderBackwardDifference | AnalyticalSolution | EulerMethod}
 Zone Air Solution Algorithm, AnalyticalSolution
! <Zone Air Carbon Dioxide Balance Simulation>, Simulation {Yes/No}, Carbon Dioxide Concentration
 Zone Air Carbon Dioxide Balance Simulation, No,N/A
! <Zone Air Generic Contaminant Balance Simulation>, Simulation {Yes/No}, Generic Contaminant Concentration
 Zone Air Generic Contaminant Balance Simulation, No,N/A
! <Zone Air Mass Flow Balance Simulation>, Enforce Mass Balance, Adjust Zone Mixing, Adjust Zone Infiltration {AddInfiltration | AdjustInfiltration | None}, Infiltration Zones {MixingSourceZonesOnly | AllZones}
 Zone Air Mass Flow Balance Simulation, No,N/A,N/A,N/A
! <HVACSystemRootFindingAlgorithm>, Value {RegulaFalsi | Bisection | BisectionThenRegulaFalsi | RegulaFalsiThenBisection}
 HVACSystemRootFindingAlgorithm, RegulaFalsi
! <Environment:Site Atmospheric Variation>,Wind Speed Profile Exponent {},Wind Speed Profile Boundary Layer Thickness {m},Air Temperature Gradient Coefficient {K/m}
Environment:Site Atmospheric Variation,0.330,460.000,6.500000E-003
! <Surface Geometry>,Starting Corner,Vertex Input Direction,Coordinate System,Daylight Reference Point Coordinate System,Rectangular (Simple) Surface Coordinate System
 Surface Geometry,UpperLeftCorner,Counterclockwise,RelativeCoordinateSystem,RelativeCoordinateSystem,RelativeToZoneOrigin
! <Surface Heat Transfer Algorithm>, Value {CTF - ConductionTransferFunction | EMPD - MoisturePenetrationDepthConductionTransferFunction | CondFD - ConductionFiniteDifference | HAMT - CombinedHeatAndMoistureFiniteElement} - Description,Inside Surface Max Temperature Limit{C}, Surface Convection Coefficient Lower Limit {W/m2-K}, Surface Convection Coefficient Upper Limit {W/m2-K}
Surface Heat Transfer Algorithm, CTF - ConductionTransferFunction,200,0.10,1000.0
! <Shading Summary>, Number of Fixed Detached Shades, Number of Building Detached Shades, Number of Attached Shades
 Shading Summary,0,0,2
! <Zone Summary>, Number of Zones, Number of Zone Surfaces, Number of SubSurfaces
 Zone Summary,67,652,103
! <Zone Information>,Zone Name,North Axis {deg},Origin X-Coordinate {m},Origin Y-Coordinate {m},Origin Z-Coordinate {m},Centroid X-Coordinate {m},Centroid Y-Coordinate {m},Centroid Z-Coordinate {m},Type,Zone Multiplier,Zone List Multiplier,Minimum X {m},Maximum X {m},Minimum Y {m},Maximum Y {m},Minimum Z {m},Maximum Z {m},Ceiling Height {m},Volume {m3},Zone Inside Convection Algorithm {Simple-Detailed-CeilingDiffuser-TrombeWall},Zone Outside Convection Algorithm {Simple-Detailed-Tarp-MoWitt-DOE-2-BLAST}, Floor Area {m2},Exterior Gross Wall Area {m2},Exterior Net Wall Area {m2},Exterior Window Area {m2}, Number of Surfaces, Number of SubSurfaces, Number of Shading SubSurfaces,  Part of Total Building Area
 Zone Information, CORRIDORFLR1,0.0,0.00,0.00,0.00,26.68,9.43,1.68,1,1,1,4.87E-002,54.91,4.88E-002,18.34,0.00,3.35,3.35,504.62,TARP,DOE-2,150.51,32.70,22.88,9.82,29,3,2,Yes
 Zone Information, CORRIDORFLR2,0.0,0.00,0.00,0.00,26.88,10.72,4.72,1,1,1,4.87E-002,54.91,8.28,18.34,3.35,6.10,2.74,344.05,TARP,DOE-2,125.42,18.39,15.77,2.62,22,2,0,Yes
 Zone Information, CORRIDORFLR3,0.0,0.00,0.00,0.00,26.88,10.72,7.47,1,1,1,4.87E-002,54.91,8.28,18.34,6.10,8.84,2.74,344.05,TARP,DOE-2,125.42,18.39,15.77,2.62,22,2,0,Yes
 Zone Information, CORRIDORFLR4,0.0,0.00,0.00,0.00,26.88,10.72,10.21,1,1,1,4.87E-002,54.91,8.28,18.34,8.84,11.58,2.74,344.05,TARP,DOE-2,125.42,18.39,15.77,2.62,22,2,0,Yes
 Zone Information, ELEVATORCOREFLR1,0.0,0.00,0.00,0.00,27.79,14.22,1.68,1,1,1,26.87,28.70,10.11,18.34,0.00,3.35,3.35,50.46,TARP,DOE-2,15.05,6.13,6.13,0.00,6,0,0,Yes
 Zone Information, ELEVATORCOREFLR2,0.0,0.00,0.00,0.00,27.79,14.22,4.72,1,1,1,26.87,28.70,10.11,18.34,3.35,6.10,2.74,41.29,TARP,DOE-2,15.05,5.02,5.02,0.00,6,0,0,Yes
 Zone Information, ELEVATORCOREFLR3,0.0,0.00,0.00,0.00,27.79,14.22,7.47,1,1,1,26.87,28.70,10.11,18.34,6.10,8.84,2.74,41.29,TARP,DOE-2,15.05,5.02,5.02,0.00,6,0,0,Yes
 Zone Information, ELEVATORCOREFLR4,0.0,0.00,0.00,0.00,27.79,14.22,10.21,1,1,1,26.87,28.70,10.11,18.34,8.84,11.58,2.74,41.29,TARP,DOE-2,15.05,5.02,5.02,0.00,6,0,0,Yes
 Zone Information, EMPLOYEELOUNGEFLR1,0.0,0.00,0.00,0.00,42.57,14.22,1.68,1,1,1,40.59,44.55,10.11,18.34,0.00,3.35,3.35,109.33,TARP,DOE-2,32.61,13.29,11.64,1.64,6,1,0,Yes
 Zone Information, EXERCISECENTERFLR1,0.0,0.00,0.00,0.00,21.84,14.22,1.68,1,1,1,19.86,23.82,10.11,18.34,0.00,3.35,3.35,109.33,TARP,DOE-2,32.61,13.29,11.64,1.65,6,1,0,Yes
 Zone Information, FRONTLOUNGEFLR1,0.0,0.00,0.00,0.00,9.95,4.16,1.68,1,1,1,4.87E-002,19.86,4.88E-002,8.28,0.00,3.35,3.35,546.70,TARP,DOE-2,163.06,94.02,79.19,14.83,7,5,0,Yes
 Zone Information, FRONTOFFICEFLR1,0.0,0.00,0.00,0.00,11.94,14.22,1.68,1,1,1,4.01,19.86,10.11,18.34,0.00,3.35,3.35,437.33,TARP,DOE-2,130.44,53.14,46.56,6.58,7,4,0,Yes
 Zone Information, FRONTSTAIRSFLR1,0.0,0.00,0.00,0.00,1.27,14.22,1.68,1,1,1,4.87E-002,2.49,10.11,18.34,0.00,3.35,3.35,67.28,TARP,DOE-2,20.07,35.77,35.77,0.00,6,0,0,Yes
 Zone Information, FRONTSTAIRSFLR2,0.0,0.00,0.00,0.00,1.27,14.22,4.72,1,1,1,4.87E-002,2.49,10.11,18.34,3.35,6.10,2.74,55.05,TARP,DOE-2,20.07,29.26,29.26,0.00,6,0,0,Yes
 Zone Information, FRONTSTAIRSFLR3,0.0,0.00,0.00,0.00,1.27,14.22,7.47,1,1,1,4.87E-002,2.49,10.11,18.34,6.10,8.84,2.74,55.05,TARP,DOE-2,20.07,29.26,29.26,0.00,6,0,0,Yes
 Zone Information, FRONTSTAIRSFLR4,0.0,0.00,0.00,0.00,1.27,14.22,10.21,1,1,1,4.87E-002,2.49,10.11,18.34,8.84,11.58,2.74,55.05,TARP,DOE-2,20.07,29.26,29.26,0.00,6,0,0,Yes
 Zone Information, FRONTSTORAGEFLR1,0.0,0.00,0.00,0.00,3.25,14.22,1.68,1,1,1,2.49,4.01,10.11,18.34,0.00,3.35,3.35,42.05,TARP,DOE-2,12.54,5.11,5.11,0.00,6,0,0,Yes
 Zone Information, FRONTSTORAGEFLR2,0.0,0.00,0.00,0.00,3.25,14.22,4.72,1,1,1,2.49,4.01,10.11,18.34,3.35,6.10,2.74,34.40,TARP,DOE-2,12.54,4.18,4.18,0.00,6,0,0,Yes
 Zone Information, FRONTSTORAGEFLR3,0.0,0.00,0.00,0.00,3.25,14.22,7.47,1,1,1,2.49,4.01,10.11,18.34,6.10,8.84,2.74,34.40,TARP,DOE-2,12.54,4.18,4.18,0.00,6,0,0,Yes
 Zone Information, FRONTSTORAGEFLR4,0.0,0.00,0.00,0.00,3.25,14.22,10.21,1,1,1,2.49,4.01,10.11,18.34,8.84,11.58,2.74,34.40,TARP,DOE-2,12.54,4.18,4.18,0.00,6,0,0,Yes
 Zone Information, GUESTROOM101,0.0,0.00,0.00,0.00,42.57,4.16,1.68,1,1,1,40.59,44.55,4.88E-002,8.28,0.00,3.35,3.35,109.34,TARP,DOE-2,32.61,13.29,11.64,1.64,6,1,0,Yes
 Zone Information, GUESTROOM102,0.0,0.00,0.00,0.00,46.53,4.16,1.68,1,1,1,44.55,48.51,4.88E-002,8.28,0.00,3.35,3.35,109.34,TARP,DOE-2,32.61,13.29,11.64,1.64,6,1,0,Yes
 Zone Information, GUESTROOM103,0.0,0.00,0.00,0.00,50.49,4.16,1.68,1,1,1,48.51,52.47,4.88E-002,8.28,0.00,3.35,3.35,109.34,TARP,DOE-2,32.61,13.29,11.64,1.65,6,1,0,Yes
 Zone Information, GUESTROOM104,0.0,0.00,0.00,0.00,50.49,14.22,1.68,1,1,1,48.51,52.47,10.11,18.34,0.00,3.35,3.35,109.33,TARP,DOE-2,32.61,13.29,11.64,1.65,6,1,0,Yes
 Zone Information, GUESTROOM105,0.0,0.00,0.00,0.00,46.53,14.22,1.68,1,1,1,44.55,48.51,10.11,18.34,0.00,3.35,3.35,109.33,TARP,DOE-2,32.61,13.29,11.64,1.64,6,1,0,Yes
 Zone Information, GUESTROOM201,0.0,0.00,0.00,0.00,2.03,4.16,4.72,1,1,1,4.87E-002,4.01,4.88E-002,8.28,3.35,6.10,2.74,89.46,TARP,DOE-2,32.61,33.45,31.80,1.64,6,1,0,Yes
 Zone Information, GUESTROOM202_205,0.0,0.00,0.00,0.00,11.94,4.16,4.72,1,1,1,4.01,19.86,4.88E-002,8.28,3.35,6.10,2.74,357.84,TARP,DOE-2,130.45,43.48,36.90,6.58,6,4,0,Yes
 Zone Information, GUESTROOM206_208,0.0,0.00,0.00,0.00,26.26,4.16,4.72,1,1,1,19.86,32.66,4.88E-002,8.28,3.35,6.10,2.74,289.02,TARP,DOE-2,105.36,35.12,28.42,6.70,8,3,0,Yes
 Zone Information, GUESTROOM209_212,0.0,0.00,0.00,0.00,40.59,4.16,4.72,1,1,1,32.66,48.51,4.88E-002,8.28,3.35,6.10,2.74,357.84,TARP,DOE-2,130.45,43.48,36.90,6.58,9,4,0,Yes
 Zone Information, GUESTROOM213,0.0,0.00,0.00,0.00,50.49,4.16,4.72,1,1,1,48.51,52.47,4.88E-002,8.28,3.35,6.10,2.74,89.46,TARP,DOE-2,32.61,10.87,9.22,1.65,6,1,0,Yes
 Zone Information, GUESTROOM214,0.0,0.00,0.00,0.00,50.49,14.22,4.72,1,1,1,48.51,52.47,10.11,18.34,3.35,6.10,2.74,89.45,TARP,DOE-2,32.61,10.87,9.22,1.65,6,1,0,Yes
 Zone Information, GUESTROOM215_218,0.0,0.00,0.00,0.00,40.59,14.22,4.72,1,1,1,32.66,48.51,10.11,18.34,3.35,6.10,2.74,357.81,TARP,DOE-2,130.44,43.48,36.90,6.58,8,4,0,Yes
 Zone Information, GUESTROOM219,0.0,0.00,0.00,0.00,30.68,14.22,4.72,1,1,1,28.70,32.66,10.11,18.34,3.35,6.10,2.74,89.45,TARP,DOE-2,32.61,10.87,9.22,1.65,6,1,0,Yes
 Zone Information, GUESTROOM220_223,0.0,0.00,0.00,0.00,15.90,14.22,4.72,1,1,1,7.97,23.82,10.11,18.34,3.35,6.10,2.74,357.81,TARP,DOE-2,130.44,43.48,36.90,6.58,7,4,0,Yes
 Zone Information, GUESTROOM224,0.0,0.00,0.00,0.00,5.99,14.22,4.72,1,1,1,4.01,7.97,10.11,18.34,3.35,6.10,2.74,89.45,TARP,DOE-2,32.61,10.87,9.22,1.64,6,1,0,Yes
 Zone Information, GUESTROOM301,0.0,0.00,0.00,0.00,2.03,4.16,7.47,1,1,1,4.87E-002,4.01,4.88E-002,8.28,6.10,8.84,2.74,89.46,TARP,DOE-2,32.61,33.45,31.80,1.64,6,1,0,Yes
 Zone Information, GUESTROOM302_305,0.0,0.00,0.00,0.00,11.94,4.16,7.47,1,1,1,4.01,19.86,4.88E-002,8.28,6.10,8.84,2.74,357.84,TARP,DOE-2,130.45,43.48,36.90,6.58,6,4,0,Yes
 Zone Information, GUESTROOM306_308,0.0,0.00,0.00,0.00,26.26,4.16,7.47,1,1,1,19.86,32.66,4.88E-002,8.28,6.10,8.84,2.74,289.02,TARP,DOE-2,105.36,35.12,28.42,6.70,6,3,0,Yes
 Zone Information, GUESTROOM309_312,0.0,0.00,0.00,0.00,40.59,4.16,7.47,1,1,1,32.66,48.51,4.88E-002,8.28,6.10,8.84,2.74,357.84,TARP,DOE-2,130.45,43.48,36.90,6.58,6,4,0,Yes
 Zone Information, GUESTROOM313,0.0,0.00,0.00,0.00,50.49,4.16,7.47,1,1,1,48.51,52.47,4.88E-002,8.28,6.10,8.84,2.74,89.46,TARP,DOE-2,32.61,10.87,9.22,1.65,6,1,0,Yes
 Zone Information, GUESTROOM314,0.0,0.00,0.00,0.00,50.49,14.22,7.47,1,1,1,48.51,52.47,10.11,18.34,6.10,8.84,2.74,89.45,TARP,DOE-2,32.61,10.87,9.22,1.65,6,1,0,Yes
 Zone Information, GUESTROOM315_318,0.0,0.00,0.00,0.00,40.59,14.22,7.47,1,1,1,32.66,48.51,10.11,18.34,6.10,8.84,2.74,357.81,TARP,DOE-2,130.44,43.48,36.90,6.58,6,4,0,Yes
 Zone Information, GUESTROOM319,0.0,0.00,0.00,0.00,30.68,14.22,7.47,1,1,1,28.70,32.66,10.11,18.34,6.10,8.84,2.74,89.45,TARP,DOE-2,32.61,10.87,9.22,1.65,6,1,0,Yes
 Zone Information, GUESTROOM320_323,0.0,0.00,0.00,0.00,15.90,14.22,7.47,1,1,1,7.97,23.82,10.11,18.34,6.10,8.84,2.74,357.81,TARP,DOE-2,130.44,43.48,36.90,6.58,6,4,0,Yes
 Zone Information, GUESTROOM324,0.0,0.00,0.00,0.00,5.99,14.22,7.47,1,1,1,4.01,7.97,10.11,18.34,6.10,8.84,2.74,89.45,TARP,DOE-2,32.61,10.87,9.22,1.64,6,1,0,Yes
 Zone Information, GUESTROOM401,0.0,0.00,0.00,0.00,2.03,4.16,10.21,1,1,1,4.87E-002,4.01,4.88E-002,8.28,8.84,11.58,2.74,89.46,TARP,DOE-2,32.61,33.45,31.80,1.64,6,1,0,Yes
 Zone Information, GUESTROOM402_405,0.0,0.00,0.00,0.00,11.94,4.16,10.21,1,1,1,4.01,19.86,4.88E-002,8.28,8.84,11.58,2.74,357.84,TARP,DOE-2,130.45,43.48,36.90,6.58,6,4,0,Yes
 Zone Information, GUESTROOM406_408,0.0,0.00,0.00,0.00,26.26,4.16,10.21,1,1,1,19.86,32.66,4.88E-002,8.28,8.84,11.58,2.74,289.02,TARP,DOE-2,105.36,35.12,28.42,6.70,6,3,0,Yes
 Zone Information, GUESTROOM409_412,0.0,0.00,0.00,0.00,40.59,4.16,10.21,1,1,1,32.66,48.51,4.88E-002,8.28,8.84,11.58,2.74,357.84,TARP,DOE-2,130.45,43.48,36.90,6.58,6,4,0,Yes
 Zone Information, GUESTROOM413,0.0,0.00,0.00,0.00,50.49,4.16,10.21,1,1,1,48.51,52.47,4.88E-002,8.28,8.84,11.58,2.74,89.46,TARP,DOE-2,32.61,10.87,9.22,1.65,6,1,0,Yes
 Zone Information, GUESTROOM414,0.0,0.00,0.00,0.00,50.49,14.22,10.21,1,1,1,48.51,52.47,10.11,18.34,8.84,11.58,2.74,89.45,TARP,DOE-2,32.61,10.87,9.22,1.65,6,1,0,Yes
 Zone Information, GUESTROOM415_418,0.0,0.00,0.00,0.00,40.59,14.22,10.21,1,1,1,32.66,48.51,10.11,18.34,8.84,11.58,2.74,357.81,TARP,DOE-2,130.44,43.48,36.90,6.58,6,4,0,Yes
 Zone Information, GUESTROOM419,0.0,0.00,0.00,0.00,30.68,14.22,10.21,1,1,1,28.70,32.66,10.11,18.34,8.84,11.58,2.74,89.45,TARP,DOE-2,32.61,10.87,9.22,1.65,6,1,0,Yes
 Zone Information, GUESTROOM420_423,0.0,0.00,0.00,0.00,15.90,14.22,10.21,1,1,1,7.97,23.82,10.11,18.34,8.84,11.58,2.74,357.81,TARP,DOE-2,130.44,43.48,36.90,6.58,6,4,0,Yes
 Zone Information, GUESTROOM424,0.0,0.00,0.00,0.00,5.99,14.22,10.21,1,1,1,4.01,7.97,10.11,18.34,8.84,11.58,2.74,89.45,TARP,DOE-2,32.61,10.87,9.22,1.64,6,1,0,Yes
 Zone Information, LAUNDRYROOMFLR1,0.0,0.00,0.00,0.00,34.64,14.22,1.68,1,1,1,28.70,40.59,10.11,18.34,0.00,3.35,3.35,327.99,TARP,DOE-2,97.83,39.86,34.92,4.94,7,3,0,Yes
 Zone Information, MECHANICALROOMFLR1,0.0,0.00,0.00,0.00,38.61,4.16,1.68,1,1,1,36.62,40.59,4.88E-002,8.28,0.00,3.35,3.35,109.34,TARP,DOE-2,32.61,13.29,13.29,0.00,6,0,0,Yes
 Zone Information, MEETINGROOMFLR1,0.0,0.00,0.00,0.00,31.75,4.16,1.68,1,1,1,26.87,36.62,4.88E-002,8.28,0.00,3.35,3.35,269.14,TARP,DOE-2,80.27,32.70,27.77,4.94,7,3,0,Yes
 Zone Information, REARSTAIRSFLR1,0.0,0.00,0.00,0.00,53.69,14.22,1.68,1,1,1,52.47,54.91,10.11,18.34,0.00,3.35,3.35,67.30,TARP,DOE-2,20.07,35.77,35.77,0.00,6,0,0,Yes
 Zone Information, REARSTAIRSFLR2,0.0,0.00,0.00,0.00,53.69,14.22,4.72,1,1,1,52.47,54.91,10.11,18.34,3.35,6.10,2.74,55.06,TARP,DOE-2,20.07,29.27,29.27,0.00,6,0,0,Yes
 Zone Information, REARSTAIRSFLR3,0.0,0.00,0.00,0.00,53.69,14.22,7.47,1,1,1,52.47,54.91,10.11,18.34,6.10,8.84,2.74,55.06,TARP,DOE-2,20.07,29.27,29.27,0.00,6,0,0,Yes
 Zone Information, REARSTAIRSFLR4,0.0,0.00,0.00,0.00,53.69,14.22,10.21,1,1,1,52.47,54.91,10.11,18.34,8.84,11.58,2.74,55.06,TARP,DOE-2,20.07,29.27,29.27,0.00,6,0,0,Yes
 Zone Information, REARSTORAGEFLR1,0.0,0.00,0.00,0.00,53.69,4.16,1.68,1,1,1,52.47,54.91,4.88E-002,8.28,0.00,3.35,3.35,67.30,TARP,DOE-2,20.07,35.77,35.77,0.00,6,0,0,Yes
 Zone Information, REARSTORAGEFLR2,0.0,0.00,0.00,0.00,53.69,4.16,4.72,1,1,1,52.47,54.91,4.88E-002,8.28,3.35,6.10,2.74,55.07,TARP,DOE-2,20.07,29.27,29.27,0.00,6,0,0,Yes
 Zone Information, REARSTORAGEFLR3,0.0,0.00,0.00,0.00,53.69,4.16,7.47,1,1,1,52.47,54.91,4.88E-002,8.28,6.10,8.84,2.74,55.07,TARP,DOE-2,20.07,29.27,29.27,0.00,6,0,0,Yes
 Zone Information, REARSTORAGEFLR4,0.0,0.00,0.00,0.00,53.69,4.16,10.21,1,1,1,52.47,54.91,4.88E-002,8.28,8.84,11.58,2.74,55.07,TARP,DOE-2,20.07,29.27,29.27,0.00,6,0,0,Yes
 Zone Information, RESTROOMFLR1,0.0,0.00,0.00,0.00,21.84,4.16,1.68,1,1,1,19.86,23.82,4.88E-002,8.28,0.00,3.35,3.35,109.34,TARP,DOE-2,32.61,13.29,13.29,0.00,6,0,0,Yes
! <Zone Internal Gains Nominal>,Zone Name, Floor Area {m2},# Occupants,Area per Occupant {m2/person},Occupant per Area {person/m2},Interior Lighting {W/m2},Electric Load {W/m2},Gas Load {W/m2},Other Load {W/m2},Hot Water Eq {W/m2},Steam Equipment {W/m2},Sum Loads per Area {W/m2},Outdoor Controlled Baseboard Heat
 Zone Internal Gains Nominal, CORRIDORFLR1,150.51,0.0,N/A,0.000,5.380,0.000,0.000,0.000,0.000,0.000,5.380,No
 Zone Internal Gains Nominal, CORRIDORFLR2,125.42,0.0,N/A,0.000,5.380,0.000,0.000,0.000,0.000,0.000,5.380,No
 Zone Internal Gains Nominal, CORRIDORFLR3,125.42,0.0,N/A,0.000,5.380,0.000,0.000,0.000,0.000,0.000,5.380,No
 Zone Internal Gains Nominal, CORRIDORFLR4,125.42,0.0,N/A,0.000,5.380,0.000,0.000,0.000,0.000,0.000,5.380,No
 Zone Internal Gains Nominal, ELEVATORCOREFLR1,15.05,0.0,N/A,0.000,0.000,2133.506,0.000,0.000,0.000,0.000,2133.506,No
 Zone Internal Gains Nominal, ELEVATORCOREFLR2,15.05,0.0,N/A,0.000,0.000,0.000,0.000,0.000,0.000,0.000,0.000,No
 Zone Internal Gains Nominal, ELEVATORCOREFLR3,15.05,0.0,N/A,0.000,0.000,0.000,0.000,0.000,0.000,0.000,0.000,No
 Zone Internal Gains Nominal, ELEVATORCOREFLR4,15.05,0.0,N/A,0.000,0.000,0.000,0.000,0.000,0.000,0.000,0.000,No
 Zone Internal Gains Nominal, EMPLOYEELOUNGEFLR1,32.61,11.0,2.964,0.337,12.900,77.160,0.000,0.000,0.000,0.000,90.060,No
 Zone Internal Gains Nominal, EXERCISECENTERFLR1,32.61,11.0,2.964,0.337,9.700,11.500,0.000,0.000,0.000,0.000,21.200,No
 Zone Internal Gains Nominal, FRONTLOUNGEFLR1,163.06,52.9,3.080,0.325,11.840,15.400,0.000,0.000,0.000,0.000,27.240,No
 Zone Internal Gains Nominal, FRONTOFFICEFLR1,130.44,10.0,13.044,7.667E-002,11.840,12.900,0.000,0.000,0.000,0.000,24.740,No
 Zone Internal Gains Nominal, FRONTSTAIRSFLR1,20.07,0.0,N/A,0.000,6.460,0.000,0.000,0.000,0.000,0.000,6.460,No
 Zone Internal Gains Nominal, FRONTSTAIRSFLR2,20.07,0.0,N/A,0.000,6.460,0.000,0.000,0.000,0.000,0.000,6.460,No
 Zone Internal Gains Nominal, FRONTSTAIRSFLR3,20.07,0.0,N/A,0.000,6.460,0.000,0.000,0.000,0.000,0.000,6.460,No
 Zone Internal Gains Nominal, FRONTSTAIRSFLR4,20.07,0.0,N/A,0.000,6.460,0.000,0.000,0.000,0.000,0.000,6.460,No
 Zone Internal Gains Nominal, FRONTSTORAGEFLR1,12.54,0.0,N/A,0.000,8.600,0.000,0.000,0.000,0.000,0.000,8.600,No
 Zone Internal Gains Nominal, FRONTSTORAGEFLR2,12.54,0.0,N/A,0.000,8.600,0.000,0.000,0.000,0.000,0.000,8.600,No
 Zone Internal Gains Nominal, FRONTSTORAGEFLR3,12.54,0.0,N/A,0.000,8.600,0.000,0.000,0.000,0.000,0.000,8.600,No
 Zone Internal Gains Nominal, FRONTSTORAGEFLR4,12.54,0.0,N/A,0.000,8.600,0.000,0.000,0.000,0.000,0.000,8.600,No
 Zone Internal Gains Nominal, GUESTROOM101,32.61,1.4,23.410,4.272E-002,11.840,14.300,0.000,0.000,0.000,0.000,26.140,No
 Zone Internal Gains Nominal, GUESTROOM102,32.61,1.4,23.410,4.272E-002,11.840,14.300,0.000,0.000,0.000,0.000,26.140,No
 Zone Internal Gains Nominal, GUESTROOM103,32.61,1.4,23.410,4.272E-002,11.840,14.300,0.000,0.000,0.000,0.000,26.140,No
 Zone Internal Gains Nominal, GUESTROOM104,32.61,1.4,23.410,4.272E-002,11.840,14.300,0.000,0.000,0.000,0.000,26.140,No
 Zone Internal Gains Nominal, GUESTROOM105,32.61,1.4,23.410,4.272E-002,11.840,14.300,0.000,0.000,0.000,0.000,26.140,No
 Zone Internal Gains Nominal, GUESTROOM201,32.61,1.4,23.410,4.272E-002,11.840,14.300,0.000,0.000,0.000,0.000,26.140,No
 Zone Internal Gains Nominal, GUESTROOM202_205,130.45,5.6,23.410,4.272E-002,11.840,14.300,0.000,0.000,0.000,0.000,26.140,No
 Zone Internal Gains Nominal, GUESTROOM206_208,105.36,4.8,21.740,4.600E-002,11.840,14.300,0.000,0.000,0.000,0.000,26.140,No
 Zone Internal Gains Nominal, GUESTROOM209_212,130.45,5.6,23.410,4.272E-002,11.840,14.300,0.000,0.000,0.000,0.000,26.140,No
 Zone Internal Gains Nominal, GUESTROOM213,32.61,1.4,23.410,4.272E-002,11.840,14.300,0.000,0.000,0.000,0.000,26.140,No
 Zone Internal Gains Nominal, GUESTROOM214,32.61,1.4,23.410,4.272E-002,11.840,14.300,0.000,0.000,0.000,0.000,26.140,No
 Zone Internal Gains Nominal, GUESTROOM215_218,130.44,5.6,23.410,4.272E-002,11.840,14.300,0.000,0.000,0.000,0.000,26.140,No
 Zone Internal Gains Nominal, GUESTROOM219,32.61,1.4,23.410,4.272E-002,11.840,14.300,0.000,0.000,0.000,0.000,26.140,No
 Zone Internal Gains Nominal, GUESTROOM220_223,130.44,5.6,23.410,4.272E-002,11.840,14.300,0.000,0.000,0.000,0.000,26.140,No
 Zone Internal Gains Nominal, GUESTROOM224,32.61,1.4,23.410,4.272E-002,11.840,14.300,0.000,0.000,0.000,0.000,26.140,No
 Zone Internal Gains Nominal, GUESTROOM301,32.61,1.4,23.410,4.272E-002,11.840,14.300,0.000,0.000,0.000,0.000,26.140,No
 Zone Internal Gains Nominal, GUESTROOM302_305,130.45,5.6,23.410,4.272E-002,11.840,14.300,0.000,0.000,0.000,0.000,26.140,No
 Zone Internal Gains Nominal, GUESTROOM306_308,105.36,4.8,21.740,4.600E-002,11.840,14.300,0.000,0.000,0.000,0.000,26.140,No
 Zone Internal Gains Nominal, GUESTROOM309_312,130.45,5.6,23.410,4.272E-002,11.840,14.300,0.000,0.000,0.000,0.000,26.140,No
 Zone Internal Gains Nominal, GUESTROOM313,32.61,1.4,23.410,4.272E-002,11.840,14.300,0.000,0.000,0.000,0.000,26.140,No
 Zone Internal Gains Nominal, GUESTROOM314,32.61,1.4,23.410,4.272E-002,11.840,14.300,0.000,0.000,0.000,0.000,26.140,No
 Zone Internal Gains Nominal, GUESTROOM315_318,130.44,5.6,23.410,4.272E-002,11.840,14.300,0.000,0.000,0.000,0.000,26.140,No
 Zone Internal Gains Nominal, GUESTROOM319,32.61,1.4,23.410,4.272E-002,11.840,14.300,0.000,0.000,0.000,0.000,26.140,No
 Zone Internal Gains Nominal, GUESTROOM320_323,130.44,5.6,23.410,4.272E-002,11.840,14.300,0.000,0.000,0.000,0.000,26.140,No
 Zone Internal Gains Nominal, GUESTROOM324,32.61,1.4,23.410,4.272E-002,11.840,14.300,0.000,0.000,0.000,0.000,26.140,No
 Zone Internal Gains Nominal, GUESTROOM401,32.61,1.4,23.410,4.272E-002,11.840,14.300,0.000,0.000,0.000,0.000,26.140,No
 Zone Internal Gains Nominal, GUESTROOM402_405,130.45,5.6,23.410,4.272E-002,11.840,14.300,0.000,0.000,0.000,0.000,26.140,No
 Zone Internal Gains Nominal, GUESTROOM406_408,105.36,4.8,21.740,4.600E-002,11.840,14.300,0.000,0.000,0.000,0.000,26.140,No
 Zone Internal Gains Nominal, GUESTROOM409_412,130.45,5.6,23.410,4.272E-002,11.840,14.300,0.000,0.000,0.000,0.000,26.140,No
 Zone Internal Gains Nominal, GUESTROOM413,32.61,1.4,23.410,4.272E-002,11.840,14.300,0.000,0.000,0.000,0.000,26.140,No
 Zone Internal Gains Nominal, GUESTROOM414,32.61,1.4,23.410,4.272E-002,11.840,14.300,0.000,0.000,0.000,0.000,26.140,No
 Zone Internal Gains Nominal, GUESTROOM415_418,130.44,5.6,23.410,4.272E-002,11.840,14.300,0.000,0.000,0.000,0.000,26.140,No
 Zone Internal Gains Nominal, GUESTROOM419,32.61,1.4,23.410,4.272E-002,11.840,14.300,0.000,0.000,0.000,0.000,26.140,No
 Zone Internal Gains Nominal, GUESTROOM420_423,130.44,5.6,23.410,4.272E-002,11.840,14.300,0.000,0.000,0.000,0.000,26.140,No
 Zone Internal Gains Nominal, GUESTROOM424,32.61,1.4,23.410,4.272E-002,11.840,14.300,0.000,0.000,0.000,0.000,26.140,No
 Zone Internal Gains Nominal, LAUNDRYROOMFLR1,97.83,11.0,8.893,0.112,6.460,21.875,184.254,0.000,0.000,0.000,212.589,No
 Zone Internal Gains Nominal, MECHANICALROOMFLR1,32.61,0.0,N/A,0.000,16.160,0.000,0.000,0.000,0.000,0.000,16.160,No
 Zone Internal Gains Nominal, MEETINGROOMFLR1,80.27,42.9,1.870,0.535,14.000,12.900,0.000,0.000,0.000,0.000,26.900,No
 Zone Internal Gains Nominal, REARSTAIRSFLR1,20.07,0.0,N/A,0.000,6.460,0.000,0.000,0.000,0.000,0.000,6.460,No
 Zone Internal Gains Nominal, REARSTAIRSFLR2,20.07,0.0,N/A,0.000,6.460,0.000,0.000,0.000,0.000,0.000,6.460,No
 Zone Internal Gains Nominal, REARSTAIRSFLR3,20.07,0.0,N/A,0.000,6.460,0.000,0.000,0.000,0.000,0.000,6.460,No
 Zone Internal Gains Nominal, REARSTAIRSFLR4,20.07,0.0,N/A,0.000,6.460,0.000,0.000,0.000,0.000,0.000,6.460,No
 Zone Internal Gains Nominal, REARSTORAGEFLR1,20.07,0.0,N/A,0.000,8.600,0.000,0.000,0.000,0.000,0.000,8.600,No
 Zone Internal Gains Nominal, REARSTORAGEFLR2,20.07,0.0,N/A,0.000,8.600,0.000,0.000,0.000,0.000,0.000,8.600,No
 Zone Internal Gains Nominal, REARSTORAGEFLR3,20.07,0.0,N/A,0.000,8.600,0.000,0.000,0.000,0.000,0.000,8.600,No
 Zone Internal Gains Nominal, REARSTORAGEFLR4,20.07,0.0,N/A,0.000,8.600,0.000,0.000,0.000,0.000,0.000,8.600,No
 Zone Internal Gains Nominal, RESTROOMFLR1,32.61,1.0,32.611,3.066E-002,9.700,10.760,0.000,0.000,0.000,0.000,20.460,No
! <People Internal Gains Nominal>,Name,Schedule Name,Zone Name,Zone Floor Area {m2},# Zone Occupants,Number of People {},People/Floor Area {person/m2},Floor Area per person {m2/person},Fraction Radiant,Fraction Convected,Sensible Fraction Calculation,Activity level,ASHRAE 55 Warnings,Carbon Dioxide Generation Rate,Nominal Minimum Number of People,Nominal Maximum Number of People,MRT Calculation Type,Work Efficiency, Clothing Insulation Calculation Method,Clothing Insulation Calculation Method Schedule,Clothing,Air Velocity,Fanger Calculation,Pierce Calculation,KSU Calculation
 People Internal Gains Nominal, EMPLOYEELOUNGEFLR1 PEOPLE,EMPLOYEELOUNGE_OCC_SCH,EMPLOYEELOUNGEFLR1,32.61,11.0,11.0,0.337,2.964,0.300,0.700,AutoCalculate,ACTIVITY_SCH,No,3.8200E-008,0,11,Zone Averaged,WORK_EFF_SCH,Clothing Insulation Schedule,N/A,CLOTHING_SCH,AIR_VELO_SCH,Yes,No,No
 People Internal Gains Nominal, EXERCISECENTERFLR1 PEOPLE,EXERCISEROOM_OCC_SCH,EXERCISECENTERFLR1,32.61,11.0,11.0,0.337,2.964,0.300,0.700,AutoCalculate,ACTIVITY_SCH,No,3.8200E-008,0,11,Zone Averaged,WORK_EFF_SCH,Clothing Insulation Schedule,N/A,CLOTHING_SCH,AIR_VELO_SCH,Yes,No,No
 People Internal Gains Nominal, FRONTLOUNGEFLR1 PEOPLE,EMPLOYEELOUNGE_OCC_SCH,FRONTLOUNGEFLR1,163.06,52.9,52.9,0.325,3.080,0.300,0.700,AutoCalculate,ACTIVITY_SCH,No,3.8200E-008,0,53,Zone Averaged,WORK_EFF_SCH,Clothing Insulation Schedule,N/A,CLOTHING_SCH,AIR_VELO_SCH,Yes,No,No
 People Internal Gains Nominal, FRONTOFFICEFLR1 PEOPLE,OFFICE_OCC_SCH,FRONTOFFICEFLR1,130.44,10.0,10.0,7.667E-002,13.044,0.300,0.700,AutoCalculate,ACTIVITY_SCH,No,3.8200E-008,0,10,Zone Averaged,WORK_EFF_SCH,Clothing Insulation Schedule,N/A,CLOTHING_SCH,AIR_VELO_SCH,Yes,No,No
 People Internal Gains Nominal, GUESTROOM101 PEOPLE,GUESTROOM_OCC_SCH,GUESTROOM101,32.61,1.4,1.4,4.272E-002,23.410,0.300,0.700,AutoCalculate,ACTIVITY_SCH,No,3.8200E-008,0,1,Zone Averaged,WORK_EFF_SCH,Clothing Insulation Schedule,N/A,CLOTHING_SCH,AIR_VELO_SCH,Yes,No,No
 People Internal Gains Nominal, GUESTROOM102 PEOPLE,GUESTROOM_OCC_SCH,GUESTROOM102,32.61,1.4,1.4,4.272E-002,23.410,0.300,0.700,AutoCalculate,ACTIVITY_SCH,No,3.8200E-008,0,1,Zone Averaged,WORK_EFF_SCH,Clothing Insulation Schedule,N/A,CLOTHING_SCH,AIR_VELO_SCH,Yes,No,No
 People Internal Gains Nominal, GUESTROOM103 PEOPLE,GUESTROOM_OCC_SCH,GUESTROOM103,32.61,1.4,1.4,4.272E-002,23.410,0.300,0.700,AutoCalculate,ACTIVITY_SCH,No,3.8200E-008,0,1,Zone Averaged,WORK_EFF_SCH,Clothing Insulation Schedule,N/A,CLOTHING_SCH,AIR_VELO_SCH,Yes,No,No
 People Internal Gains Nominal, GUESTROOM104 PEOPLE,GUESTROOM_OCC_SCH,GUESTROOM104,32.61,1.4,1.4,4.272E-002,23.410,0.300,0.700,AutoCalculate,ACTIVITY_SCH,No,3.8200E-008,0,1,Zone Averaged,WORK_EFF_SCH,Clothing Insulation Schedule,N/A,CLOTHING_SCH,AIR_VELO_SCH,Yes,No,No
 People Internal Gains Nominal, GUESTROOM105 PEOPLE,GUESTROOM_OCC_SCH,GUESTROOM105,32.61,1.4,1.4,4.272E-002,23.410,0.300,0.700,AutoCalculate,ACTIVITY_SCH,No,3.8200E-008,0,1,Zone Averaged,WORK_EFF_SCH,Clothing Insulation Schedule,N/A,CLOTHING_SCH,AIR_VELO_SCH,Yes,No,No
 People Internal Gains Nominal, GUESTROOM201 PEOPLE,GUESTROOM_OCC_SCH,GUESTROOM201,32.61,1.4,1.4,4.272E-002,23.410,0.300,0.700,AutoCalculate,ACTIVITY_SCH,No,3.8200E-008,0,1,Zone Averaged,WORK_EFF_SCH,Clothing Insulation Schedule,N/A,CLOTHING_SCH,AIR_VELO_SCH,Yes,No,No
 People Internal Gains Nominal, GUESTROOM202_205 PEOPLE,GUESTROOM_OCC_SCH,GUESTROOM202_205,130.45,5.6,5.6,4.272E-002,23.410,0.300,0.700,AutoCalculate,ACTIVITY_SCH,No,3.8200E-008,0,6,Zone Averaged,WORK_EFF_SCH,Clothing Insulation Schedule,N/A,CLOTHING_SCH,AIR_VELO_SCH,Yes,No,No
 People Internal Gains Nominal, GUESTROOM206_208 PEOPLE,GUESTROOM_OCC_SCH,GUESTROOM206_208,105.36,4.8,4.8,4.600E-002,21.740,0.300,0.700,AutoCalculate,ACTIVITY_SCH,No,3.8200E-008,0,5,Zone Averaged,WORK_EFF_SCH,Clothing Insulation Schedule,N/A,CLOTHING_SCH,AIR_VELO_SCH,Yes,No,No
 People Internal Gains Nominal, GUESTROOM209_212 PEOPLE,GUESTROOM_OCC_SCH,GUESTROOM209_212,130.45,5.6,5.6,4.272E-002,23.410,0.300,0.700,AutoCalculate,ACTIVITY_SCH,No,3.8200E-008,0,6,Zone Averaged,WORK_EFF_SCH,Clothing Insulation Schedule,N/A,CLOTHING_SCH,AIR_VELO_SCH,Yes,No,No
 People Internal Gains Nominal, GUESTROOM213 PEOPLE,GUESTROOM_OCC_SCH,GUESTROOM213,32.61,1.4,1.4,4.272E-002,23.410,0.300,0.700,AutoCalculate,ACTIVITY_SCH,No,3.8200E-008,0,1,Zone Averaged,WORK_EFF_SCH,Clothing Insulation Schedule,N/A,CLOTHING_SCH,AIR_VELO_SCH,Yes,No,No
 People Internal Gains Nominal, GUESTROOM214 PEOPLE,GUESTROOM_OCC_SCH,GUESTROOM214,32.61,1.4,1.4,4.272E-002,23.410,0.300,0.700,AutoCalculate,ACTIVITY_SCH,No,3.8200E-008,0,1,Zone Averaged,WORK_EFF_SCH,Clothing Insulation Schedule,N/A,CLOTHING_SCH,AIR_VELO_SCH,Yes,No,No
 People Internal Gains Nominal, GUESTROOM215_218 PEOPLE,GUESTROOM_OCC_SCH,GUESTROOM215_218,130.44,5.6,5.6,4.272E-002,23.410,0.300,0.700,AutoCalculate,ACTIVITY_SCH,No,3.8200E-008,0,6,Zone Averaged,WORK_EFF_SCH,Clothing Insulation Schedule,N/A,CLOTHING_SCH,AIR_VELO_SCH,Yes,No,No
 People Internal Gains Nominal, GUESTROOM219 PEOPLE,GUESTROOM_OCC_SCH,GUESTROOM219,32.61,1.4,1.4,4.272E-002,23.410,0.300,0.700,AutoCalculate,ACTIVITY_SCH,No,3.8200E-008,0,1,Zone Averaged,WORK_EFF_SCH,Clothing Insulation Schedule,N/A,CLOTHING_SCH,AIR_VELO_SCH,Yes,No,No
 People Internal Gains Nominal, GUESTROOM220_223 PEOPLE,GUESTROOM_OCC_SCH,GUESTROOM220_223,130.44,5.6,5.6,4.272E-002,23.410,0.300,0.700,AutoCalculate,ACTIVITY_SCH,No,3.8200E-008,0,6,Zone Averaged,WORK_EFF_SCH,Clothing Insulation Schedule,N/A,CLOTHING_SCH,AIR_VELO_SCH,Yes,No,No
 People Internal Gains Nominal, GUESTROOM224 PEOPLE,GUESTROOM_OCC_SCH,GUESTROOM224,32.61,1.4,1.4,4.272E-002,23.410,0.300,0.700,AutoCalculate,ACTIVITY_SCH,No,3.8200E-008,0,1,Zone Averaged,WORK_EFF_SCH,Clothing Insulation Schedule,N/A,CLOTHING_SCH,AIR_VELO_SCH,Yes,No,No
 People Internal Gains Nominal, GUESTROOM301 PEOPLE,GUESTROOM_OCC_SCH,GUESTROOM301,32.61,1.4,1.4,4.272E-002,23.410,0.300,0.700,AutoCalculate,ACTIVITY_SCH,No,3.8200E-008,0,1,Zone Averaged,WORK_EFF_SCH,Clothing Insulation Schedule,N/A,CLOTHING_SCH,AIR_VELO_SCH,Yes,No,No
 People Internal Gains Nominal, GUESTROOM302_305 PEOPLE,GUESTROOM_OCC_SCH,GUESTROOM302_305,130.45,5.6,5.6,4.272E-002,23.410,0.300,0.700,AutoCalculate,ACTIVITY_SCH,No,3.8200E-008,0,6,Zone Averaged,WORK_EFF_SCH,Clothing Insulation Schedule,N/A,CLOTHING_SCH,AIR_VELO_SCH,Yes,No,No
 People Internal Gains Nominal, GUESTROOM306_308 PEOPLE,GUESTROOM_OCC_SCH,GUESTROOM306_308,105.36,4.8,4.8,4.600E-002,21.740,0.300,0.700,AutoCalculate,ACTIVITY_SCH,No,3.8200E-008,0,5,Zone Averaged,WORK_EFF_SCH,Clothing Insulation Schedule,N/A,CLOTHING_SCH,AIR_VELO_SCH,Yes,No,No
 People Internal Gains Nominal, GUESTROOM309_312 PEOPLE,GUESTROOM_OCC_SCH,GUESTROOM309_312,130.45,5.6,5.6,4.272E-002,23.410,0.300,0.700,AutoCalculate,ACTIVITY_SCH,No,3.8200E-008,0,6,Zone Averaged,WORK_EFF_SCH,Clothing Insulation Schedule,N/A,CLOTHING_SCH,AIR_VELO_SCH,Yes,No,No
 People Internal Gains Nominal, GUESTROOM313 PEOPLE,GUESTROOM_OCC_SCH,GUESTROOM313,32.61,1.4,1.4,4.272E-002,23.410,0.300,0.700,AutoCalculate,ACTIVITY_SCH,No,3.8200E-008,0,1,Zone Averaged,WORK_EFF_SCH,Clothing Insulation Schedule,N/A,CLOTHING_SCH,AIR_VELO_SCH,Yes,No,No
 People Internal Gains Nominal, GUESTROOM314 PEOPLE,GUESTROOM_OCC_SCH,GUESTROOM314,32.61,1.4,1.4,4.272E-002,23.410,0.300,0.700,AutoCalculate,ACTIVITY_SCH,No,3.8200E-008,0,1,Zone Averaged,WORK_EFF_SCH,Clothing Insulation Schedule,N/A,CLOTHING_SCH,AIR_VELO_SCH,Yes,No,No
 People Internal Gains Nominal, GUESTROOM315_318 PEOPLE,GUESTROOM_OCC_SCH,GUESTROOM315_318,130.44,5.6,5.6,4.272E-002,23.410,0.300,0.700,AutoCalculate,ACTIVITY_SCH,No,3.8200E-008,0,6,Zone Averaged,WORK_EFF_SCH,Clothing Insulation Schedule,N/A,CLOTHING_SCH,AIR_VELO_SCH,Yes,No,No
 People Internal Gains Nominal, GUESTROOM319 PEOPLE,GUESTROOM_OCC_SCH,GUESTROOM319,32.61,1.4,1.4,4.272E-002,23.410,0.300,0.700,AutoCalculate,ACTIVITY_SCH,No,3.8200E-008,0,1,Zone Averaged,WORK_EFF_SCH,Clothing Insulation Schedule,N/A,CLOTHING_SCH,AIR_VELO_SCH,Yes,No,No
 People Internal Gains Nominal, GUESTROOM320_323 PEOPLE,GUESTROOM_OCC_SCH,GUESTROOM320_323,130.44,5.6,5.6,4.272E-002,23.410,0.300,0.700,AutoCalculate,ACTIVITY_SCH,No,3.8200E-008,0,6,Zone Averaged,WORK_EFF_SCH,Clothing Insulation Schedule,N/A,CLOTHING_SCH,AIR_VELO_SCH,Yes,No,No
 People Internal Gains Nominal, GUESTROOM324 PEOPLE,GUESTROOM_OCC_SCH,GUESTROOM324,32.61,1.4,1.4,4.272E-002,23.410,0.300,0.700,AutoCalculate,ACTIVITY_SCH,No,3.8200E-008,0,1,Zone Averaged,WORK_EFF_SCH,Clothing Insulation Schedule,N/A,CLOTHING_SCH,AIR_VELO_SCH,Yes,No,No
 People Internal Gains Nominal, GUESTROOM401 PEOPLE,GUESTROOM_OCC_SCH,GUESTROOM401,32.61,1.4,1.4,4.272E-002,23.410,0.300,0.700,AutoCalculate,ACTIVITY_SCH,No,3.8200E-008,0,1,Zone Averaged,WORK_EFF_SCH,Clothing Insulation Schedule,N/A,CLOTHING_SCH,AIR_VELO_SCH,Yes,No,No
 People Internal Gains Nominal, GUESTROOM402_405 PEOPLE,GUESTROOM_OCC_SCH,GUESTROOM402_405,130.45,5.6,5.6,4.272E-002,23.410,0.300,0.700,AutoCalculate,ACTIVITY_SCH,No,3.8200E-008,0,6,Zone Averaged,WORK_EFF_SCH,Clothing Insulation Schedule,N/A,CLOTHING_SCH,AIR_VELO_SCH,Yes,No,No
 People Internal Gains Nominal, GUESTROOM406_408 PEOPLE,GUESTROOM_OCC_SCH,GUESTROOM406_408,105.36,4.8,4.8,4.600E-002,21.740,0.300,0.700,AutoCalculate,ACTIVITY_SCH,No,3.8200E-008,0,5,Zone Averaged,WORK_EFF_SCH,Clothing Insulation Schedule,N/A,CLOTHING_SCH,AIR_VELO_SCH,Yes,No,No
 People Internal Gains Nominal, GUESTROOM409_412 PEOPLE,GUESTROOM_OCC_SCH,GUESTROOM409_412,130.45,5.6,5.6,4.272E-002,23.410,0.300,0.700,AutoCalculate,ACTIVITY_SCH,No,3.8200E-008,0,6,Zone Averaged,WORK_EFF_SCH,Clothing Insulation Schedule,N/A,CLOTHING_SCH,AIR_VELO_SCH,Yes,No,No
 People Internal Gains Nominal, GUESTROOM413 PEOPLE,GUESTROOM_OCC_SCH,GUESTROOM413,32.61,1.4,1.4,4.272E-002,23.410,0.300,0.700,AutoCalculate,ACTIVITY_SCH,No,3.8200E-008,0,1,Zone Averaged,WORK_EFF_SCH,Clothing Insulation Schedule,N/A,CLOTHING_SCH,AIR_VELO_SCH,Yes,No,No
 People Internal Gains Nominal, GUESTROOM414 PEOPLE,GUESTROOM_OCC_SCH,GUESTROOM414,32.61,1.4,1.4,4.272E-002,23.410,0.300,0.700,AutoCalculate,ACTIVITY_SCH,No,3.8200E-008,0,1,Zone Averaged,WORK_EFF_SCH,Clothing Insulation Schedule,N/A,CLOTHING_SCH,AIR_VELO_SCH,Yes,No,No
 People Internal Gains Nominal, GUESTROOM415_418 PEOPLE,GUESTROOM_OCC_SCH,GUESTROOM415_418,130.44,5.6,5.6,4.272E-002,23.410,0.300,0.700,AutoCalculate,ACTIVITY_SCH,No,3.8200E-008,0,6,Zone Averaged,WORK_EFF_SCH,Clothing Insulation Schedule,N/A,CLOTHING_SCH,AIR_VELO_SCH,Yes,No,No
 People Internal Gains Nominal, GUESTROOM419 PEOPLE,GUESTROOM_OCC_SCH,GUESTROOM419,32.61,1.4,1.4,4.272E-002,23.410,0.300,0.700,AutoCalculate,ACTIVITY_SCH,No,3.8200E-008,0,1,Zone Averaged,WORK_EFF_SCH,Clothing Insulation Schedule,N/A,CLOTHING_SCH,AIR_VELO_SCH,Yes,No,No
 People Internal Gains Nominal, GUESTROOM420_423 PEOPLE,GUESTROOM_OCC_SCH,GUESTROOM420_423,130.44,5.6,5.6,4.272E-002,23.410,0.300,0.700,AutoCalculate,ACTIVITY_SCH,No,3.8200E-008,0,6,Zone Averaged,WORK_EFF_SCH,Clothing Insulation Schedule,N/A,CLOTHING_SCH,AIR_VELO_SCH,Yes,No,No
 People Internal Gains Nominal, GUESTROOM424 PEOPLE,GUESTROOM_OCC_SCH,GUESTROOM424,32.61,1.4,1.4,4.272E-002,23.410,0.300,0.700,AutoCalculate,ACTIVITY_SCH,No,3.8200E-008,0,1,Zone Averaged,WORK_EFF_SCH,Clothing Insulation Schedule,N/A,CLOTHING_SCH,AIR_VELO_SCH,Yes,No,No
 People Internal Gains Nominal, LAUNDRYROOMFLR1 PEOPLE,LAUNDRYROOM_OCC_SCH,LAUNDRYROOMFLR1,97.83,11.0,11.0,0.112,8.893,0.300,0.700,AutoCalculate,ACTIVITY_SCH,No,3.8200E-008,0,11,Zone Averaged,WORK_EFF_SCH,Clothing Insulation Schedule,N/A,CLOTHING_SCH,AIR_VELO_SCH,Yes,No,No
 People Internal Gains Nominal, MEETINGROOMFLR1 PEOPLE,MEETINGROOM_OCC_SCH,MEETINGROOMFLR1,80.27,42.9,42.9,0.535,1.870,0.300,0.700,AutoCalculate,ACTIVITY_SCH,No,3.8200E-008,0,43,Zone Averaged,WORK_EFF_SCH,Clothing Insulation Schedule,N/A,CLOTHING_SCH,AIR_VELO_SCH,Yes,No,No
 People Internal Gains Nominal, RESTROOMFLR1 PEOPLE,BLDG_OCC_SCH,RESTROOMFLR1,32.61,1.0,1.0,3.066E-002,32.611,0.300,0.700,AutoCalculate,ACTIVITY_SCH,No,3.8200E-008,0,1,Zone Averaged,WORK_EFF_SCH,Clothing Insulation Schedule,N/A,CLOTHING_SCH,AIR_VELO_SCH,Yes,No,No
! <Lights Internal Gains Nominal>,Name,Schedule Name,Zone Name,Zone Floor Area {m2},# Zone Occupants,Lighting Level {W},Lights/Floor Area {W/m2},Lights per person {W/person},Fraction Return Air,Fraction Radiant,Fraction Short Wave,Fraction Convected,Fraction Replaceable,End-Use Category,Nominal Minimum Lighting Level {W},Nominal Maximum Lighting Level {W}
 Lights Internal Gains Nominal, CORRIDORFLR1_LIGHTS,CORRIDOR_LTG_SCH,CORRIDORFLR1,150.51,0.0,809.721,5.380,N/A,0.000,0.700,0.200,0.100,1.000,General,809.721,809.721
 Lights Internal Gains Nominal, CORRIDORFLR2_LIGHTS,CORRIDOR_LTG_SCH,CORRIDORFLR2,125.42,0.0,674.761,5.380,N/A,0.000,0.700,0.200,0.100,1.000,General,674.761,674.761
 Lights Internal Gains Nominal, CORRIDORFLR3_LIGHTS,CORRIDOR_LTG_SCH,CORRIDORFLR3,125.42,0.0,674.761,5.380,N/A,0.000,0.700,0.200,0.100,1.000,General,674.761,674.761
 Lights Internal Gains Nominal, CORRIDORFLR4_LIGHTS,CORRIDOR_LTG_SCH,CORRIDORFLR4,125.42,0.0,674.761,5.380,N/A,0.000,0.700,0.200,0.100,1.000,General,674.761,674.761
 Lights Internal Gains Nominal, EMPLOYEELOUNGEFLR1_LIGHTS,EMPLOYEELOUNGE_LTG_SCH,EMPLOYEELOUNGEFLR1,32.61,11.0,420.656,12.900,38.241,0.000,0.700,0.200,0.100,1.000,General,0.000,420.656
 Lights Internal Gains Nominal, EXERCISECENTERFLR1_LIGHTS,EXERCISEROOM_LTG_SCH_BASE,EXERCISECENTERFLR1,32.61,11.0,316.307,9.700,28.755,0.000,0.700,0.200,0.100,1.000,General,0.000,316.307
 Lights Internal Gains Nominal, FRONTLOUNGEFLR1_LIGHTS,EMPLOYEELOUNGE_LTG_SCH,FRONTLOUNGEFLR1,163.06,52.9,1930.592,11.840,36.467,0.000,0.700,0.200,0.100,1.000,General,0.000,1930.592
 Lights Internal Gains Nominal, FRONTOFFICEFLR1_LIGHTS,OFFICE_LTG_SCH_BASE,FRONTOFFICEFLR1,130.44,10.0,1544.361,11.840,154.436,0.000,0.700,0.200,0.100,1.000,General,0.000,1544.361
 Lights Internal Gains Nominal, FRONTSTAIRSFLR1_LIGHTS,CORRIDOR_LTG_SCH,FRONTSTAIRSFLR1,20.07,0.0,129.633,6.460,N/A,0.000,0.700,0.200,0.100,1.000,General,129.633,129.633
 Lights Internal Gains Nominal, FRONTSTAIRSFLR2_LIGHTS,CORRIDOR_LTG_SCH,FRONTSTAIRSFLR2,20.07,0.0,129.633,6.460,N/A,0.000,0.700,0.200,0.100,1.000,General,129.633,129.633
 Lights Internal Gains Nominal, FRONTSTAIRSFLR3_LIGHTS,CORRIDOR_LTG_SCH,FRONTSTAIRSFLR3,20.07,0.0,129.633,6.460,N/A,0.000,0.700,0.200,0.100,1.000,General,129.633,129.633
 Lights Internal Gains Nominal, FRONTSTAIRSFLR4_LIGHTS,CORRIDOR_LTG_SCH,FRONTSTAIRSFLR4,20.07,0.0,129.633,6.460,N/A,0.000,0.700,0.200,0.100,1.000,General,129.633,129.633
 Lights Internal Gains Nominal, FRONTSTORAGEFLR1_LIGHTS,STORAGE_LTG_SCH,FRONTSTORAGEFLR1,12.54,0.0,107.860,8.600,N/A,0.000,0.700,0.200,0.100,1.000,General,0.000,107.860
 Lights Internal Gains Nominal, FRONTSTORAGEFLR2_LIGHTS,STORAGE_LTG_SCH,FRONTSTORAGEFLR2,12.54,0.0,107.860,8.600,N/A,0.000,0.700,0.200,0.100,1.000,General,0.000,107.860
 Lights Internal Gains Nominal, FRONTSTORAGEFLR3_LIGHTS,STORAGE_LTG_SCH,FRONTSTORAGEFLR3,12.54,0.0,107.860,8.600,N/A,0.000,0.700,0.200,0.100,1.000,General,0.000,107.860
 Lights Internal Gains Nominal, FRONTSTORAGEFLR4_LIGHTS,STORAGE_LTG_SCH,FRONTSTORAGEFLR4,12.54,0.0,107.860,8.600,N/A,0.000,0.700,0.200,0.100,1.000,General,0.000,107.860
 Lights Internal Gains Nominal, GUESTROOM101_LIGHTS,GUESTROOM_LTG_SCH_BASE,GUESTROOM101,32.61,1.4,386.118,11.840,277.174,0.000,0.700,0.200,0.100,1.000,General,0.000,386.118
 Lights Internal Gains Nominal, GUESTROOM102_LIGHTS,GUESTROOM_LTG_SCH_BASE,GUESTROOM102,32.61,1.4,386.118,11.840,277.174,0.000,0.700,0.200,0.100,1.000,General,0.000,386.118
 Lights Internal Gains Nominal, GUESTROOM103_LIGHTS,GUESTROOM_LTG_SCH_BASE,GUESTROOM103,32.61,1.4,386.118,11.840,277.174,0.000,0.700,0.200,0.100,1.000,General,0.000,386.118
 Lights Internal Gains Nominal, GUESTROOM104_LIGHTS,GUESTROOM_LTG_SCH_BASE,GUESTROOM104,32.61,1.4,386.090,11.840,277.174,0.000,0.700,0.200,0.100,1.000,General,0.000,386.090
 Lights Internal Gains Nominal, GUESTROOM105_LIGHTS,GUESTROOM_LTG_SCH_BASE,GUESTROOM105,32.61,1.4,386.090,11.840,277.174,0.000,0.700,0.200,0.100,1.000,General,0.000,386.090
 Lights Internal Gains Nominal, GUESTROOM201_LIGHTS,GUESTROOM_LTG_SCH_BASE,GUESTROOM201,32.61,1.4,386.118,11.840,277.174,0.000,0.700,0.200,0.100,1.000,General,0.000,386.118
 Lights Internal Gains Nominal, GUESTROOM202_205_LIGHTS,GUESTROOM_LTG_SCH_BASE,GUESTROOM202_205,130.45,5.6,1544.473,11.840,277.174,0.000,0.700,0.200,0.100,1.000,General,0.000,1544.473
 Lights Internal Gains Nominal, GUESTROOM206_208_LIGHTS,GUESTROOM_LTG_SCH_BASE,GUESTROOM206_208,105.36,4.8,1247.459,11.840,257.402,0.000,0.700,0.200,0.100,1.000,General,0.000,1247.459
 Lights Internal Gains Nominal, GUESTROOM209_212_LIGHTS,GUESTROOM_LTG_SCH_BASE,GUESTROOM209_212,130.45,5.6,1544.473,11.840,277.174,0.000,0.700,0.200,0.100,1.000,General,0.000,1544.473
 Lights Internal Gains Nominal, GUESTROOM213_LIGHTS,GUESTROOM_LTG_SCH_BASE,GUESTROOM213,32.61,1.4,386.118,11.840,277.174,0.000,0.700,0.200,0.100,1.000,General,0.000,386.118
 Lights Internal Gains Nominal, GUESTROOM214_LIGHTS,GUESTROOM_LTG_SCH_BASE,GUESTROOM214,32.61,1.4,386.090,11.840,277.174,0.000,0.700,0.200,0.100,1.000,General,0.000,386.090
 Lights Internal Gains Nominal, GUESTROOM215_218_LIGHTS,GUESTROOM_LTG_SCH_BASE,GUESTROOM215_218,130.44,5.6,1544.361,11.840,277.174,0.000,0.700,0.200,0.100,1.000,General,0.000,1544.361
 Lights Internal Gains Nominal, GUESTROOM219_LIGHTS,GUESTROOM_LTG_SCH_BASE,GUESTROOM219,32.61,1.4,386.090,11.840,277.174,0.000,0.700,0.200,0.100,1.000,General,0.000,386.090
 Lights Internal Gains Nominal, GUESTROOM220_223_LIGHTS,GUESTROOM_LTG_SCH_BASE,GUESTROOM220_223,130.44,5.6,1544.361,11.840,277.174,0.000,0.700,0.200,0.100,1.000,General,0.000,1544.361
 Lights Internal Gains Nominal, GUESTROOM224_LIGHTS,GUESTROOM_LTG_SCH_BASE,GUESTROOM224,32.61,1.4,386.090,11.840,277.174,0.000,0.700,0.200,0.100,1.000,General,0.000,386.090
 Lights Internal Gains Nominal, GUESTROOM301_LIGHTS,GUESTROOM_LTG_SCH_BASE,GUESTROOM301,32.61,1.4,386.118,11.840,277.174,0.000,0.700,0.200,0.100,1.000,General,0.000,386.118
 Lights Internal Gains Nominal, GUESTROOM302_305_LIGHTS,GUESTROOM_LTG_SCH_BASE,GUESTROOM302_305,130.45,5.6,1544.473,11.840,277.174,0.000,0.700,0.200,0.100,1.000,General,0.000,1544.473
 Lights Internal Gains Nominal, GUESTROOM306_308_LIGHTS,GUESTROOM_LTG_SCH_BASE,GUESTROOM306_308,105.36,4.8,1247.459,11.840,257.402,0.000,0.700,0.200,0.100,1.000,General,0.000,1247.459
 Lights Internal Gains Nominal, GUESTROOM309_312_LIGHTS,GUESTROOM_LTG_SCH_BASE,GUESTROOM309_312,130.45,5.6,1544.473,11.840,277.174,0.000,0.700,0.200,0.100,1.000,General,0.000,1544.473
 Lights Internal Gains Nominal, GUESTROOM313_LIGHTS,GUESTROOM_LTG_SCH_BASE,GUESTROOM313,32.61,1.4,386.118,11.840,277.174,0.000,0.700,0.200,0.100,1.000,General,0.000,386.118
 Lights Internal Gains Nominal, GUESTROOM314_LIGHTS,GUESTROOM_LTG_SCH_BASE,GUESTROOM314,32.61,1.4,386.090,11.840,277.174,0.000,0.700,0.200,0.100,1.000,General,0.000,386.090
 Lights Internal Gains Nominal, GUESTROOM315_318_LIGHTS,GUESTROOM_LTG_SCH_BASE,GUESTROOM315_318,130.44,5.6,1544.361,11.840,277.174,0.000,0.700,0.200,0.100,1.000,General,0.000,1544.361
 Lights Internal Gains Nominal, GUESTROOM319_LIGHTS,GUESTROOM_LTG_SCH_BASE,GUESTROOM319,32.61,1.4,386.090,11.840,277.174,0.000,0.700,0.200,0.100,1.000,General,0.000,386.090
 Lights Internal Gains Nominal, GUESTROOM320_323_LIGHTS,GUESTROOM_LTG_SCH_BASE,GUESTROOM320_323,130.44,5.6,1544.361,11.840,277.174,0.000,0.700,0.200,0.100,1.000,General,0.000,1544.361
 Lights Internal Gains Nominal, GUESTROOM324_LIGHTS,GUESTROOM_LTG_SCH_BASE,GUESTROOM324,32.61,1.4,386.090,11.840,277.174,0.000,0.700,0.200,0.100,1.000,General,0.000,386.090
 Lights Internal Gains Nominal, GUESTROOM401_LIGHTS,GUESTROOM_LTG_SCH_BASE,GUESTROOM401,32.61,1.4,386.118,11.840,277.174,0.000,0.700,0.200,0.100,1.000,General,0.000,386.118
 Lights Internal Gains Nominal, GUESTROOM402_405_LIGHTS,GUESTROOM_LTG_SCH_BASE,GUESTROOM402_405,130.45,5.6,1544.473,11.840,277.174,0.000,0.700,0.200,0.100,1.000,General,0.000,1544.473
 Lights Internal Gains Nominal, GUESTROOM406_408_LIGHTS,GUESTROOM_LTG_SCH_BASE,GUESTROOM406_408,105.36,4.8,1247.459,11.840,257.402,0.000,0.700,0.200,0.100,1.000,General,0.000,1247.459
 Lights Internal Gains Nominal, GUESTROOM409_412_LIGHTS,GUESTROOM_LTG_SCH_BASE,GUESTROOM409_412,130.45,5.6,1544.473,11.840,277.174,0.000,0.700,0.200,0.100,1.000,General,0.000,1544.473
 Lights Internal Gains Nominal, GUESTROOM413_LIGHTS,GUESTROOM_LTG_SCH_BASE,GUESTROOM413,32.61,1.4,386.118,11.840,277.174,0.000,0.700,0.200,0.100,1.000,General,0.000,386.118
 Lights Internal Gains Nominal, GUESTROOM414_LIGHTS,GUESTROOM_LTG_SCH_BASE,GUESTROOM414,32.61,1.4,386.090,11.840,277.174,0.000,0.700,0.200,0.100,1.000,General,0.000,386.090
 Lights Internal Gains Nominal, GUESTROOM415_418_LIGHTS,GUESTROOM_LTG_SCH_BASE,GUESTROOM415_418,130.44,5.6,1544.361,11.840,277.174,0.000,0.700,0.200,0.100,1.000,General,0.000,1544.361
 Lights Internal Gains Nominal, GUESTROOM419_LIGHTS,GUESTROOM_LTG_SCH_BASE,GUESTROOM419,32.61,1.4,386.090,11.840,277.174,0.000,0.700,0.200,0.100,1.000,General,0.000,386.090
 Lights Internal Gains Nominal, GUESTROOM420_423_LIGHTS,GUESTROOM_LTG_SCH_BASE,GUESTROOM420_423,130.44,5.6,1544.361,11.840,277.174,0.000,0.700,0.200,0.100,1.000,General,0.000,1544.361
 Lights Internal Gains Nominal, GUESTROOM424_LIGHTS,GUESTROOM_LTG_SCH_BASE,GUESTROOM424,32.61,1.4,386.090,11.840,277.174,0.000,0.700,0.200,0.100,1.000,General,0.000,386.090
 Lights Internal Gains Nominal, LAUNDRYROOMFLR1_LIGHTS,LAUNDRYROOM_LTG_SCH,LAUNDRYROOMFLR1,97.83,11.0,631.962,6.460,57.451,0.000,0.700,0.200,0.100,1.000,General,0.000,631.962
 Lights Internal Gains Nominal, MECHANICALROOMFLR1_LIGHTS,BLDG_LIGHT_SCH,MECHANICALROOMFLR1,32.61,0.0,526.999,16.160,N/A,0.000,0.700,0.200,0.100,1.000,General,0.000,526.999
 Lights Internal Gains Nominal, MEETINGROOMFLR1_LIGHTS,MEETINGROOM_LTG_SCH_BASE,MEETINGROOMFLR1,80.27,42.9,1123.837,14.000,26.180,0.000,0.700,0.200,0.100,1.000,General,0.000,1123.837
 Lights Internal Gains Nominal, REARSTAIRSFLR1_LIGHTS,CORRIDOR_LTG_SCH,REARSTAIRSFLR1,20.07,0.0,129.665,6.460,N/A,0.000,0.700,0.200,0.100,1.000,General,129.665,129.665
 Lights Internal Gains Nominal, REARSTAIRSFLR2_LIGHTS,CORRIDOR_LTG_SCH,REARSTAIRSFLR2,20.07,0.0,129.665,6.460,N/A,0.000,0.700,0.200,0.100,1.000,General,129.665,129.665
 Lights Internal Gains Nominal, REARSTAIRSFLR3_LIGHTS,CORRIDOR_LTG_SCH,REARSTAIRSFLR3,20.07,0.0,129.665,6.460,N/A,0.000,0.700,0.200,0.100,1.000,General,129.665,129.665
 Lights Internal Gains Nominal, REARSTAIRSFLR4_LIGHTS,CORRIDOR_LTG_SCH,REARSTAIRSFLR4,20.07,0.0,129.665,6.460,N/A,0.000,0.700,0.200,0.100,1.000,General,129.665,129.665
 Lights Internal Gains Nominal, REARSTORAGEFLR1_LIGHTS,STORAGE_LTG_SCH,REARSTORAGEFLR1,20.07,0.0,172.632,8.600,N/A,0.000,0.700,0.200,0.100,1.000,General,0.000,172.632
 Lights Internal Gains Nominal, REARSTORAGEFLR2_LIGHTS,STORAGE_LTG_SCH,REARSTORAGEFLR2,20.07,0.0,172.632,8.600,N/A,0.000,0.700,0.200,0.100,1.000,General,0.000,172.632
 Lights Internal Gains Nominal, REARSTORAGEFLR3_LIGHTS,STORAGE_LTG_SCH,REARSTORAGEFLR3,20.07,0.0,172.632,8.600,N/A,0.000,0.700,0.200,0.100,1.000,General,0.000,172.632
 Lights Internal Gains Nominal, REARSTORAGEFLR4_LIGHTS,STORAGE_LTG_SCH,REARSTORAGEFLR4,20.07,0.0,172.632,8.600,N/A,0.000,0.700,0.200,0.100,1.000,General,0.000,172.632
 Lights Internal Gains Nominal, RESTROOMFLR1_LIGHTS,BLDG_LIGHT_SCH,RESTROOMFLR1,32.61,1.0,316.330,9.700,316.330,0.000,0.700,0.200,0.100,1.000,General,0.000,316.330
! <ElectricEquipment Internal Gains Nominal>,Name,Schedule Name,Zone Name,Zone Floor Area {m2},# Zone Occupants,Equipment Level {W},Equipment/Floor Area {W/m2},Equipment per person {W/person},Fraction Latent,Fraction Radiant,Fraction Lost,Fraction Convected,End-Use SubCategory,Nominal Minimum Equipment Level {W},Nominal Maximum Equipment Level {W}
 ElectricEquipment Internal Gains Nominal, ELEVATORCOREFLR1_ELEVATORS_EQUIP,BLDG_ELEVATORS,ELEVATORCOREFLR1,15.05,0.0,32109.890,2133.506,N/A,0.000,0.500,0.000,0.500,Elevators,1605.495,16054.945
 ElectricEquipment Internal Gains Nominal, EMPLOYEELOUNGEFLR1_PLUGMISC_EQUIP,EMPLOYEELOUNGE_EQP_SCH,EMPLOYEELOUNGEFLR1,32.61,11.0,2516.108,77.160,228.737,0.000,0.500,0.000,0.500,General,0.000,2516.108
 ElectricEquipment Internal Gains Nominal, EXERCISECENTERFLR1_PLUGMISC_EQUIP,EXERCISEROOM_EQP_SCH,EXERCISECENTERFLR1,32.61,11.0,375.003,11.500,34.091,0.000,0.500,0.000,0.500,General,0.000,375.003
 ElectricEquipment Internal Gains Nominal, FRONTLOUNGEFLR1_PLUGMISC_EQUIP,EMPLOYEELOUNGE_EQP_SCH,FRONTLOUNGEFLR1,163.06,52.9,2511.074,15.400,47.432,0.000,0.500,0.000,0.500,General,0.000,2511.074
 ElectricEquipment Internal Gains Nominal, FRONTOFFICEFLR1_PLUGMISC_EQUIP,OFFICE_EQP_SCH,FRONTOFFICEFLR1,130.44,10.0,1682.623,12.900,168.262,0.000,0.500,0.000,0.500,General,0.000,1682.623
 ElectricEquipment Internal Gains Nominal, GUESTROOM101_PLUGMISC_EQUIP,GUESTROOM_EQP_SCH,GUESTROOM101,32.61,1.4,466.342,14.300,334.763,0.000,0.500,0.000,0.500,General,0.000,466.342
 ElectricEquipment Internal Gains Nominal, GUESTROOM102_PLUGMISC_EQUIP,GUESTROOM_EQP_SCH,GUESTROOM102,32.61,1.4,466.342,14.300,334.763,0.000,0.500,0.000,0.500,General,0.000,466.342
 ElectricEquipment Internal Gains Nominal, GUESTROOM103_PLUGMISC_EQUIP,GUESTROOM_EQP_SCH,GUESTROOM103,32.61,1.4,466.342,14.300,334.763,0.000,0.500,0.000,0.500,General,0.000,466.342
 ElectricEquipment Internal Gains Nominal, GUESTROOM104_PLUGMISC_EQUIP,GUESTROOM_EQP_SCH,GUESTROOM104,32.61,1.4,466.308,14.300,334.763,0.000,0.500,0.000,0.500,General,0.000,466.308
 ElectricEquipment Internal Gains Nominal, GUESTROOM105_PLUGMISC_EQUIP,GUESTROOM_EQP_SCH,GUESTROOM105,32.61,1.4,466.308,14.300,334.763,0.000,0.500,0.000,0.500,General,0.000,466.308
 ElectricEquipment Internal Gains Nominal, GUESTROOM201_PLUGMISC_EQUIP,GUESTROOM_EQP_SCH,GUESTROOM201,32.61,1.4,466.342,14.300,334.763,0.000,0.500,0.000,0.500,General,0.000,466.342
 ElectricEquipment Internal Gains Nominal, GUESTROOM202_205_PLUGMISC_EQUIP,GUESTROOM_EQP_SCH,GUESTROOM202_205,130.45,5.6,1865.369,14.300,334.763,0.000,0.500,0.000,0.500,General,0.000,1865.369
 ElectricEquipment Internal Gains Nominal, GUESTROOM206_208_PLUGMISC_EQUIP,GUESTROOM_EQP_SCH,GUESTROOM206_208,105.36,4.8,1506.644,14.300,310.882,0.000,0.500,0.000,0.500,General,0.000,1506.644
 ElectricEquipment Internal Gains Nominal, GUESTROOM209_212_PLUGMISC_EQUIP,GUESTROOM_EQP_SCH,GUESTROOM209_212,130.45,5.6,1865.369,14.300,334.763,0.000,0.500,0.000,0.500,General,0.000,1865.369
 ElectricEquipment Internal Gains Nominal, GUESTROOM213_PLUGMISC_EQUIP,GUESTROOM_EQP_SCH,GUESTROOM213,32.61,1.4,466.342,14.300,334.763,0.000,0.500,0.000,0.500,General,0.000,466.342
 ElectricEquipment Internal Gains Nominal, GUESTROOM214_PLUGMISC_EQUIP,GUESTROOM_EQP_SCH,GUESTROOM214,32.61,1.4,466.308,14.300,334.763,0.000,0.500,0.000,0.500,General,0.000,466.308
 ElectricEquipment Internal Gains Nominal, GUESTROOM215_218_PLUGMISC_EQUIP,GUESTROOM_EQP_SCH,GUESTROOM215_218,130.44,5.6,1865.233,14.300,334.763,0.000,0.500,0.000,0.500,General,0.000,1865.233
 ElectricEquipment Internal Gains Nominal, GUESTROOM219_PLUGMISC_EQUIP,GUESTROOM_EQP_SCH,GUESTROOM219,32.61,1.4,466.308,14.300,334.763,0.000,0.500,0.000,0.500,General,0.000,466.308
 ElectricEquipment Internal Gains Nominal, GUESTROOM220_223_PLUGMISC_EQUIP,GUESTROOM_EQP_SCH,GUESTROOM220_223,130.44,5.6,1865.233,14.300,334.763,0.000,0.500,0.000,0.500,General,0.000,1865.233
 ElectricEquipment Internal Gains Nominal, GUESTROOM224_PLUGMISC_EQUIP,GUESTROOM_EQP_SCH,GUESTROOM224,32.61,1.4,466.308,14.300,334.763,0.000,0.500,0.000,0.500,General,0.000,466.308
 ElectricEquipment Internal Gains Nominal, GUESTROOM301_PLUGMISC_EQUIP,GUESTROOM_EQP_SCH,GUESTROOM301,32.61,1.4,466.342,14.300,334.763,0.000,0.500,0.000,0.500,General,0.000,466.342
 ElectricEquipment Internal Gains Nominal, GUESTROOM302_305_PLUGMISC_EQUIP,GUESTROOM_EQP_SCH,GUESTROOM302_305,130.45,5.6,1865.369,14.300,334.763,0.000,0.500,0.000,0.500,General,0.000,1865.369
 ElectricEquipment Internal Gains Nominal, GUESTROOM306_308_PLUGMISC_EQUIP,GUESTROOM_EQP_SCH,GUESTROOM306_308,105.36,4.8,1506.644,14.300,310.882,0.000,0.500,0.000,0.500,General,0.000,1506.644
 ElectricEquipment Internal Gains Nominal, GUESTROOM309_312_PLUGMISC_EQUIP,GUESTROOM_EQP_SCH,GUESTROOM309_312,130.45,5.6,1865.369,14.300,334.763,0.000,0.500,0.000,0.500,General,0.000,1865.369
 ElectricEquipment Internal Gains Nominal, GUESTROOM313_PLUGMISC_EQUIP,GUESTROOM_EQP_SCH,GUESTROOM313,32.61,1.4,466.342,14.300,334.763,0.000,0.500,0.000,0.500,General,0.000,466.342
 ElectricEquipment Internal Gains Nominal, GUESTROOM314_PLUGMISC_EQUIP,GUESTROOM_EQP_SCH,GUESTROOM314,32.61,1.4,466.308,14.300,334.763,0.000,0.500,0.000,0.500,General,0.000,466.308
 ElectricEquipment Internal Gains Nominal, GUESTROOM315_318_PLUGMISC_EQUIP,GUESTROOM_EQP_SCH,GUESTROOM315_318,130.44,5.6,1865.233,14.300,334.763,0.000,0.500,0.000,0.500,General,0.000,1865.233
 ElectricEquipment Internal Gains Nominal, GUESTROOM319_PLUGMISC_EQUIP,GUESTROOM_EQP_SCH,GUESTROOM319,32.61,1.4,466.308,14.300,334.763,0.000,0.500,0.000,0.500,General,0.000,466.308
 ElectricEquipment Internal Gains Nominal, GUESTROOM320_323_PLUGMISC_EQUIP,GUESTROOM_EQP_SCH,GUESTROOM320_323,130.44,5.6,1865.233,14.300,334.763,0.000,0.500,0.000,0.500,General,0.000,1865.233
 ElectricEquipment Internal Gains Nominal, GUESTROOM324_PLUGMISC_EQUIP,GUESTROOM_EQP_SCH,GUESTROOM324,32.61,1.4,466.308,14.300,334.763,0.000,0.500,0.000,0.500,General,0.000,466.308
 ElectricEquipment Internal Gains Nominal, GUESTROOM401_PLUGMISC_EQUIP,GUESTROOM_EQP_SCH,GUESTROOM401,32.61,1.4,466.342,14.300,334.763,0.000,0.500,0.000,0.500,General,0.000,466.342
 ElectricEquipment Internal Gains Nominal, GUESTROOM402_405_PLUGMISC_EQUIP,GUESTROOM_EQP_SCH,GUESTROOM402_405,130.45,5.6,1865.369,14.300,334.763,0.000,0.500,0.000,0.500,General,0.000,1865.369
 ElectricEquipment Internal Gains Nominal, GUESTROOM406_408_PLUGMISC_EQUIP,GUESTROOM_EQP_SCH,GUESTROOM406_408,105.36,4.8,1506.644,14.300,310.882,0.000,0.500,0.000,0.500,General,0.000,1506.644
 ElectricEquipment Internal Gains Nominal, GUESTROOM409_412_PLUGMISC_EQUIP,GUESTROOM_EQP_SCH,GUESTROOM409_412,130.45,5.6,1865.369,14.300,334.763,0.000,0.500,0.000,0.500,General,0.000,1865.369
 ElectricEquipment Internal Gains Nominal, GUESTROOM413_PLUGMISC_EQUIP,GUESTROOM_EQP_SCH,GUESTROOM413,32.61,1.4,466.342,14.300,334.763,0.000,0.500,0.000,0.500,General,0.000,466.342
 ElectricEquipment Internal Gains Nominal, GUESTROOM414_PLUGMISC_EQUIP,GUESTROOM_EQP_SCH,GUESTROOM414,32.61,1.4,466.308,14.300,334.763,0.000,0.500,0.000,0.500,General,0.000,466.308
 ElectricEquipment Internal Gains Nominal, GUESTROOM415_418_PLUGMISC_EQUIP,GUESTROOM_EQP_SCH,GUESTROOM415_418,130.44,5.6,1865.233,14.300,334.763,0.000,0.500,0.000,0.500,General,0.000,1865.233
 ElectricEquipment Internal Gains Nominal, GUESTROOM419_PLUGMISC_EQUIP,GUESTROOM_EQP_SCH,GUESTROOM419,32.61,1.4,466.308,14.300,334.763,0.000,0.500,0.000,0.500,General,0.000,466.308
 ElectricEquipment Internal Gains Nominal, GUESTROOM420_423_PLUGMISC_EQUIP,GUESTROOM_EQP_SCH,GUESTROOM420_423,130.44,5.6,1865.233,14.300,334.763,0.000,0.500,0.000,0.500,General,0.000,1865.233
 ElectricEquipment Internal Gains Nominal, GUESTROOM424_PLUGMISC_EQUIP,GUESTROOM_EQP_SCH,GUESTROOM424,32.61,1.4,466.308,14.300,334.763,0.000,0.500,0.000,0.500,General,0.000,466.308
 ElectricEquipment Internal Gains Nominal, LAUNDRYROOMFLR1_LAUNDRYWASHERS_EQUIP,LAUNDRYROOM_EQP_ELEC_SCH,LAUNDRYROOMFLR1,97.83,11.0,2140.000,21.875,194.545,0.000,0.200,0.000,0.800,LaundryWashers,0.000,2140.000
 ElectricEquipment Internal Gains Nominal, MEETINGROOMFLR1_PLUGMISC_EQUIP,MEETINGROOM_EQP_SCH,MEETINGROOMFLR1,80.27,42.9,1035.536,12.900,24.123,0.000,0.500,0.000,0.500,General,0.000,559.189
 ElectricEquipment Internal Gains Nominal, RESTROOMFLR1_PLUGMISC_EQUIP,BLDG_EQUIP_SCH,RESTROOMFLR1,32.61,1.0,350.898,10.760,350.898,0.000,0.500,0.000,0.500,General,0.000,350.898
! <GasEquipment Internal Gains Nominal>,Name,Schedule Name,Zone Name,Zone Floor Area {m2},# Zone Occupants,Equipment Level {W},Equipment/Floor Area {W/m2},Equipment per person {W/person},Fraction Latent,Fraction Radiant,Fraction Lost,Fraction Convected,End-Use SubCategory,Nominal Minimum Equipment Level {W},Nominal Maximum Equipment Level {W}
 GasEquipment Internal Gains Nominal, LAUNDRYROOMFLR1_LAUNDRYDRYERS_EQUIP,LAUNDRYROOM_EQP_GAS_SCH,LAUNDRYROOMFLR1,97.83,11.0,18025.000,184.254,1638.636,0.000,0.200,0.500,0.300,LaundryDryers,0.000,18025.000
! <Shadowing/Sun Position Calculations Annual Simulations>, Calculation Method, Value {days}, Allowable Number Figures in Shadow Overlap {}, Polygon Clipping Algorithm, Sky Diffuse Modeling Algorithm
Shadowing/Sun Position Calculations Annual Simulations,AverageOverDaysInFrequency,7,15000,SutherlandHodgman,SimpleSkyDiffuseModeling,InternalCalculation,No
! <Water Heater Information>,Type,Name,Volume {m3},Maximum Capacity {W},Standard Rated Recovery Efficiency, Standard Rated Energy Factor
! <ZoneInfiltration Airflow Stats Nominal>,Name,Schedule Name,Zone Name, Zone Floor Area {m2}, # Zone Occupants,Design Volume Flow Rate {m3/s},Volume Flow Rate/Floor Area {m3/s/m2},Volume Flow Rate/Exterior Surface Area {m3/s/m2},ACH - Air Changes per Hour,Equation A - Constant Term Coefficient {},Equation B - Temperature Term Coefficient {1/C},Equation C - Velocity Term Coefficient {s/m}, Equation D - Velocity Squared Term Coefficient {s2/m2}
 ZoneInfiltration Airflow Stats Nominal, CORRIDORFLR1_INFILTRATION,INFIL_HALF_ON_SCH,CORRIDORFLR1,150.51,0.0,9.876E-003,6.562E-005,3.020E-004,7.046E-002,1.000,0.000,0.000,0.000
 ZoneInfiltration Airflow Stats Nominal, CORRIDORFLR2_INFILTRATION,INFIL_HALF_ON_SCH,CORRIDORFLR2,125.42,0.0,5.555E-003,4.429E-005,3.020E-004,5.813E-002,1.000,0.000,0.000,0.000
 ZoneInfiltration Airflow Stats Nominal, CORRIDORFLR3_INFILTRATION,INFIL_HALF_ON_SCH,CORRIDORFLR3,125.42,0.0,5.555E-003,4.429E-005,3.020E-004,5.813E-002,1.000,0.000,0.000,0.000
 ZoneInfiltration Airflow Stats Nominal, CORRIDORFLR4_INFILTRATION,INFIL_HALF_ON_SCH,CORRIDORFLR4,125.42,0.0,4.343E-002,3.463E-004,3.020E-004,0.454,1.000,0.000,0.000,0.000
 ZoneInfiltration Airflow Stats Nominal, ELEVATORCOREFLR1_INFILTRATION,INFIL_HALF_ON_SCH,ELEVATORCOREFLR1,15.05,0.0,1.852E-003,1.230E-004,3.020E-004,0.132,1.000,0.000,0.000,0.000
 ZoneInfiltration Airflow Stats Nominal, ELEVATORCOREFLR2_INFILTRATION,INFIL_HALF_ON_SCH,ELEVATORCOREFLR2,15.05,0.0,1.515E-003,1.007E-004,3.020E-004,0.132,1.000,0.000,0.000,0.000
 ZoneInfiltration Airflow Stats Nominal, ELEVATORCOREFLR3_INFILTRATION,INFIL_HALF_ON_SCH,ELEVATORCOREFLR3,15.05,0.0,1.515E-003,1.007E-004,3.020E-004,0.132,1.000,0.000,0.000,0.000
 ZoneInfiltration Airflow Stats Nominal, ELEVATORCOREFLR4_INFILTRATION,INFIL_HALF_ON_SCH,ELEVATORCOREFLR4,15.05,0.0,6.060E-003,4.027E-004,3.020E-004,0.528,1.000,0.000,0.000,0.000
 ZoneInfiltration Airflow Stats Nominal, EMPLOYEELOUNGEFLR1_INFILTRATION,INFIL_HALF_ON_SCH,EMPLOYEELOUNGEFLR1,32.61,11.0,4.012E-003,1.230E-004,3.020E-004,0.132,1.000,0.000,0.000,0.000
 ZoneInfiltration Airflow Stats Nominal, EXERCISECENTERFLR1_INFILTRATION,INFIL_HALF_ON_SCH,EXERCISECENTERFLR1,32.61,11.0,4.012E-003,1.230E-004,3.020E-004,0.132,1.000,0.000,0.000,0.000
 ZoneInfiltration Airflow Stats Nominal, FRONTLOUNGEFLR1_INFILTRATION,INFIL_HALF_ON_SCH,FRONTLOUNGEFLR1,163.06,52.9,2.839E-002,1.741E-004,3.020E-004,0.187,1.000,0.000,0.000,0.000
 ZoneInfiltration Airflow Stats Nominal, FRONTOFFICEFLR1_INFILTRATION,INFIL_HALF_ON_SCH,FRONTOFFICEFLR1,130.44,10.0,1.605E-002,1.230E-004,3.020E-004,0.132,1.000,0.000,0.000,0.000
 ZoneInfiltration Airflow Stats Nominal, FRONTSTAIRSFLR1_INFILTRATION,INFIL_SCH,FRONTSTAIRSFLR1,20.07,0.0,1.080E-002,5.383E-004,3.020E-004,0.578,1.000,0.000,0.000,0.000
 ZoneInfiltration Airflow Stats Nominal, FRONTSTAIRSFLR2_INFILTRATION,INFIL_SCH,FRONTSTAIRSFLR2,20.07,0.0,8.838E-003,4.404E-004,3.020E-004,0.578,1.000,0.000,0.000,0.000
 ZoneInfiltration Airflow Stats Nominal, FRONTSTAIRSFLR3_INFILTRATION,INFIL_SCH,FRONTSTAIRSFLR3,20.07,0.0,8.838E-003,4.404E-004,3.020E-004,0.578,1.000,0.000,0.000,0.000
 ZoneInfiltration Airflow Stats Nominal, FRONTSTAIRSFLR4_INFILTRATION,INFIL_SCH,FRONTSTAIRSFLR4,20.07,0.0,1.490E-002,7.424E-004,3.020E-004,0.974,1.000,0.000,0.000,0.000
 ZoneInfiltration Airflow Stats Nominal, FRONTSTORAGEFLR1_INFILTRATION,INFIL_HALF_ON_SCH,FRONTSTORAGEFLR1,12.54,0.0,1.543E-003,1.230E-004,3.020E-004,0.132,1.000,0.000,0.000,0.000
 ZoneInfiltration Airflow Stats Nominal, FRONTSTORAGEFLR2_INFILTRATION,INFIL_HALF_ON_SCH,FRONTSTORAGEFLR2,12.54,0.0,1.263E-003,1.007E-004,3.020E-004,0.132,1.000,0.000,0.000,0.000
 ZoneInfiltration Airflow Stats Nominal, FRONTSTORAGEFLR3_INFILTRATION,INFIL_HALF_ON_SCH,FRONTSTORAGEFLR3,12.54,0.0,1.263E-003,1.007E-004,3.020E-004,0.132,1.000,0.000,0.000,0.000
 ZoneInfiltration Airflow Stats Nominal, FRONTSTORAGEFLR4_INFILTRATION,INFIL_HALF_ON_SCH,FRONTSTORAGEFLR4,12.54,0.0,5.050E-003,4.027E-004,3.020E-004,0.528,1.000,0.000,0.000,0.000
 ZoneInfiltration Airflow Stats Nominal, GUESTROOM101_INFILTRATION,INFIL_HALF_ON_SCH,GUESTROOM101,32.61,1.4,4.012E-003,1.230E-004,3.020E-004,0.132,1.000,0.000,0.000,0.000
 ZoneInfiltration Airflow Stats Nominal, GUESTROOM102_INFILTRATION,INFIL_HALF_ON_SCH,GUESTROOM102,32.61,1.4,4.012E-003,1.230E-004,3.020E-004,0.132,1.000,0.000,0.000,0.000
 ZoneInfiltration Airflow Stats Nominal, GUESTROOM103_INFILTRATION,INFIL_HALF_ON_SCH,GUESTROOM103,32.61,1.4,4.012E-003,1.230E-004,3.020E-004,0.132,1.000,0.000,0.000,0.000
 ZoneInfiltration Airflow Stats Nominal, GUESTROOM104_INFILTRATION,INFIL_HALF_ON_SCH,GUESTROOM104,32.61,1.4,4.012E-003,1.230E-004,3.020E-004,0.132,1.000,0.000,0.000,0.000
 ZoneInfiltration Airflow Stats Nominal, GUESTROOM105_INFILTRATION,INFIL_HALF_ON_SCH,GUESTROOM105,32.61,1.4,4.012E-003,1.230E-004,3.020E-004,0.132,1.000,0.000,0.000,0.000
 ZoneInfiltration Airflow Stats Nominal, GUESTROOM201_INFILTRATION,INFIL_HALF_ON_SCH,GUESTROOM201,32.61,1.4,1.010E-002,3.097E-004,3.020E-004,0.406,1.000,0.000,0.000,0.000
 ZoneInfiltration Airflow Stats Nominal, GUESTROOM202_205_INFILTRATION,INFIL_HALF_ON_SCH,GUESTROOM202_205,130.45,5.6,1.313E-002,1.007E-004,3.020E-004,0.132,1.000,0.000,0.000,0.000
 ZoneInfiltration Airflow Stats Nominal, GUESTROOM206_208_INFILTRATION,INFIL_HALF_ON_SCH,GUESTROOM206_208,105.36,4.8,1.061E-002,1.007E-004,3.020E-004,0.132,1.000,0.000,0.000,0.000
 ZoneInfiltration Airflow Stats Nominal, GUESTROOM209_212_INFILTRATION,INFIL_HALF_ON_SCH,GUESTROOM209_212,130.45,5.6,1.313E-002,1.007E-004,3.020E-004,0.132,1.000,0.000,0.000,0.000
 ZoneInfiltration Airflow Stats Nominal, GUESTROOM213_INFILTRATION,INFIL_HALF_ON_SCH,GUESTROOM213,32.61,1.4,3.283E-003,1.007E-004,3.020E-004,0.132,1.000,0.000,0.000,0.000
 ZoneInfiltration Airflow Stats Nominal, GUESTROOM214_INFILTRATION,INFIL_HALF_ON_SCH,GUESTROOM214,32.61,1.4,3.283E-003,1.007E-004,3.020E-004,0.132,1.000,0.000,0.000,0.000
 ZoneInfiltration Airflow Stats Nominal, GUESTROOM215_218_INFILTRATION,INFIL_HALF_ON_SCH,GUESTROOM215_218,130.44,5.6,1.313E-002,1.007E-004,3.020E-004,0.132,1.000,0.000,0.000,0.000
 ZoneInfiltration Airflow Stats Nominal, GUESTROOM219_INFILTRATION,INFIL_HALF_ON_SCH,GUESTROOM219,32.61,1.4,3.283E-003,1.007E-004,3.020E-004,0.132,1.000,0.000,0.000,0.000
 ZoneInfiltration Airflow Stats Nominal, GUESTROOM220_223_INFILTRATION,INFIL_HALF_ON_SCH,GUESTROOM220_223,130.44,5.6,1.313E-002,1.007E-004,3.020E-004,0.132,1.000,0.000,0.000,0.000
 ZoneInfiltration Airflow Stats Nominal, GUESTROOM224_INFILTRATION,INFIL_HALF_ON_SCH,GUESTROOM224,32.61,1.4,3.283E-003,1.007E-004,3.020E-004,0.132,1.000,0.000,0.000,0.000
 ZoneInfiltration Airflow Stats Nominal, GUESTROOM301_INFILTRATION,INFIL_HALF_ON_SCH,GUESTROOM301,32.61,1.4,1.010E-002,3.097E-004,3.020E-004,0.406,1.000,0.000,0.000,0.000
 ZoneInfiltration Airflow Stats Nominal, GUESTROOM302_305_INFILTRATION,INFIL_HALF_ON_SCH,GUESTROOM302_305,130.45,5.6,1.313E-002,1.007E-004,3.020E-004,0.132,1.000,0.000,0.000,0.000
 ZoneInfiltration Airflow Stats Nominal, GUESTROOM306_308_INFILTRATION,INFIL_HALF_ON_SCH,GUESTROOM306_308,105.36,4.8,1.061E-002,1.007E-004,3.020E-004,0.132,1.000,0.000,0.000,0.000
 ZoneInfiltration Airflow Stats Nominal, GUESTROOM309_312_INFILTRATION,INFIL_HALF_ON_SCH,GUESTROOM309_312,130.45,5.6,1.313E-002,1.007E-004,3.020E-004,0.132,1.000,0.000,0.000,0.000
 ZoneInfiltration Airflow Stats Nominal, GUESTROOM313_INFILTRATION,INFIL_HALF_ON_SCH,GUESTROOM313,32.61,1.4,3.283E-003,1.007E-004,3.020E-004,0.132,1.000,0.000,0.000,0.000
 ZoneInfiltration Airflow Stats Nominal, GUESTROOM314_INFILTRATION,INFIL_HALF_ON_SCH,GUESTROOM314,32.61,1.4,3.283E-003,1.007E-004,3.020E-004,0.132,1.000,0.000,0.000,0.000
 ZoneInfiltration Airflow Stats Nominal, GUESTROOM315_318_INFILTRATION,INFIL_HALF_ON_SCH,GUESTROOM315_318,130.44,5.6,1.313E-002,1.007E-004,3.020E-004,0.132,1.000,0.000,0.000,0.000
 ZoneInfiltration Airflow Stats Nominal, GUESTROOM319_INFILTRATION,INFIL_HALF_ON_SCH,GUESTROOM319,32.61,1.4,3.283E-003,1.007E-004,3.020E-004,0.132,1.000,0.000,0.000,0.000
 ZoneInfiltration Airflow Stats Nominal, GUESTROOM320_323_INFILTRATION,INFIL_HALF_ON_SCH,GUESTROOM320_323,130.44,5.6,1.313E-002,1.007E-004,3.020E-004,0.132,1.000,0.000,0.000,0.000
 ZoneInfiltration Airflow Stats Nominal, GUESTROOM324_INFILTRATION,INFIL_HALF_ON_SCH,GUESTROOM324,32.61,1.4,3.283E-003,1.007E-004,3.020E-004,0.132,1.000,0.000,0.000,0.000
 ZoneInfiltration Airflow Stats Nominal, GUESTROOM401_INFILTRATION,INFIL_HALF_ON_SCH,GUESTROOM401,32.61,1.4,1.995E-002,6.117E-004,3.020E-004,0.803,1.000,0.000,0.000,0.000
 ZoneInfiltration Airflow Stats Nominal, GUESTROOM402_405_INFILTRATION,INFIL_HALF_ON_SCH,GUESTROOM402_405,130.45,5.6,5.253E-002,4.027E-004,3.020E-004,0.528,1.000,0.000,0.000,0.000
 ZoneInfiltration Airflow Stats Nominal, GUESTROOM406_408_INFILTRATION,INFIL_HALF_ON_SCH,GUESTROOM406_408,105.36,4.8,4.242E-002,4.027E-004,3.020E-004,0.528,1.000,0.000,0.000,0.000
 ZoneInfiltration Airflow Stats Nominal, GUESTROOM409_412_INFILTRATION,INFIL_HALF_ON_SCH,GUESTROOM409_412,130.45,5.6,5.253E-002,4.027E-004,3.020E-004,0.528,1.000,0.000,0.000,0.000
 ZoneInfiltration Airflow Stats Nominal, GUESTROOM413_INFILTRATION,INFIL_HALF_ON_SCH,GUESTROOM413,32.61,1.4,1.313E-002,4.027E-004,3.020E-004,0.528,1.000,0.000,0.000,0.000
 ZoneInfiltration Airflow Stats Nominal, GUESTROOM414_INFILTRATION,INFIL_HALF_ON_SCH,GUESTROOM414,32.61,1.4,1.313E-002,4.027E-004,3.020E-004,0.528,1.000,0.000,0.000,0.000
 ZoneInfiltration Airflow Stats Nominal, GUESTROOM415_418_INFILTRATION,INFIL_HALF_ON_SCH,GUESTROOM415_418,130.44,5.6,5.252E-002,4.027E-004,3.020E-004,0.528,1.000,0.000,0.000,0.000
 ZoneInfiltration Airflow Stats Nominal, GUESTROOM419_INFILTRATION,INFIL_HALF_ON_SCH,GUESTROOM419,32.61,1.4,1.313E-002,4.027E-004,3.020E-004,0.528,1.000,0.000,0.000,0.000
 ZoneInfiltration Airflow Stats Nominal, GUESTROOM420_423_INFILTRATION,INFIL_HALF_ON_SCH,GUESTROOM420_423,130.44,5.6,5.252E-002,4.027E-004,3.020E-004,0.528,1.000,0.000,0.000,0.000
 ZoneInfiltration Airflow Stats Nominal, GUESTROOM424_INFILTRATION,INFIL_HALF_ON_SCH,GUESTROOM424,32.61,1.4,1.313E-002,4.027E-004,3.020E-004,0.528,1.000,0.000,0.000,0.000
 ZoneInfiltration Airflow Stats Nominal, LAUNDRYROOMFLR1_INFILTRATION,INFIL_HALF_ON_SCH,LAUNDRYROOMFLR1,97.83,11.0,1.204E-002,1.230E-004,3.020E-004,0.132,1.000,0.000,0.000,0.000
 ZoneInfiltration Airflow Stats Nominal, MECHANICALROOMFLR1_INFILTRATION,INFIL_HALF_ON_SCH,MECHANICALROOMFLR1,32.61,0.0,4.012E-003,1.230E-004,3.020E-004,0.132,1.000,0.000,0.000,0.000
 ZoneInfiltration Airflow Stats Nominal, MEETINGROOMFLR1_INFILTRATION,INFIL_HALF_ON_SCH,MEETINGROOMFLR1,80.27,42.9,9.876E-003,1.230E-004,3.020E-004,0.132,1.000,0.000,0.000,0.000
 ZoneInfiltration Airflow Stats Nominal, REARSTAIRSFLR1_INFILTRATION,INFIL_SCH,REARSTAIRSFLR1,20.07,0.0,1.080E-002,5.382E-004,3.020E-004,0.578,1.000,0.000,0.000,0.000
 ZoneInfiltration Airflow Stats Nominal, REARSTAIRSFLR2_INFILTRATION,INFIL_SCH,REARSTAIRSFLR2,20.07,0.0,8.838E-003,4.403E-004,3.020E-004,0.578,1.000,0.000,0.000,0.000
 ZoneInfiltration Airflow Stats Nominal, REARSTAIRSFLR3_INFILTRATION,INFIL_SCH,REARSTAIRSFLR3,20.07,0.0,8.838E-003,4.403E-004,3.020E-004,0.578,1.000,0.000,0.000,0.000
 ZoneInfiltration Airflow Stats Nominal, REARSTAIRSFLR4_INFILTRATION,INFIL_SCH,REARSTAIRSFLR4,20.07,0.0,1.490E-002,7.423E-004,3.020E-004,0.974,1.000,0.000,0.000,0.000
 ZoneInfiltration Airflow Stats Nominal, REARSTORAGEFLR1_INFILTRATION,INFIL_HALF_ON_SCH,REARSTORAGEFLR1,20.07,0.0,1.080E-002,5.382E-004,3.020E-004,0.578,1.000,0.000,0.000,0.000
 ZoneInfiltration Airflow Stats Nominal, REARSTORAGEFLR2_INFILTRATION,INFIL_HALF_ON_SCH,REARSTORAGEFLR2,20.07,0.0,8.839E-003,4.403E-004,3.020E-004,0.578,1.000,0.000,0.000,0.000
 ZoneInfiltration Airflow Stats Nominal, REARSTORAGEFLR3_INFILTRATION,INFIL_HALF_ON_SCH,REARSTORAGEFLR3,20.07,0.0,8.839E-003,4.403E-004,3.020E-004,0.578,1.000,0.000,0.000,0.000
 ZoneInfiltration Airflow Stats Nominal, REARSTORAGEFLR4_INFILTRATION,INFIL_HALF_ON_SCH,REARSTORAGEFLR4,20.07,0.0,1.490E-002,7.423E-004,3.020E-004,0.974,1.000,0.000,0.000,0.000
 ZoneInfiltration Airflow Stats Nominal, RESTROOMFLR1_INFILTRATION,INFIL_HALF_ON_SCH,RESTROOMFLR1,32.61,1.0,4.012E-003,1.230E-004,3.020E-004,0.132,1.000,0.000,0.000,0.000
! <AirFlow Model>, Simple
 AirFlow Model, Simple
! <RoomAir Model>, Zone Name, Mixing/Mundt/UCSDDV/UCSDCV/UCSDUFI/UCSDUFE/User Defined
RoomAir Model,CORRIDORFLR1,Mixing/Well-Stirred
RoomAir Model,CORRIDORFLR2,Mixing/Well-Stirred
RoomAir Model,CORRIDORFLR3,Mixing/Well-Stirred
RoomAir Model,CORRIDORFLR4,Mixing/Well-Stirred
RoomAir Model,ELEVATORCOREFLR1,Mixing/Well-Stirred
RoomAir Model,ELEVATORCOREFLR2,Mixing/Well-Stirred
RoomAir Model,ELEVATORCOREFLR3,Mixing/Well-Stirred
RoomAir Model,ELEVATORCOREFLR4,Mixing/Well-Stirred
RoomAir Model,EMPLOYEELOUNGEFLR1,Mixing/Well-Stirred
RoomAir Model,EXERCISECENTERFLR1,Mixing/Well-Stirred
RoomAir Model,FRONTLOUNGEFLR1,Mixing/Well-Stirred
RoomAir Model,FRONTOFFICEFLR1,Mixing/Well-Stirred
RoomAir Model,FRONTSTAIRSFLR1,Mixing/Well-Stirred
RoomAir Model,FRONTSTAIRSFLR2,Mixing/Well-Stirred
RoomAir Model,FRONTSTAIRSFLR3,Mixing/Well-Stirred
RoomAir Model,FRONTSTAIRSFLR4,Mixing/Well-Stirred
RoomAir Model,FRONTSTORAGEFLR1,Mixing/Well-Stirred
RoomAir Model,FRONTSTORAGEFLR2,Mixing/Well-Stirred
RoomAir Model,FRONTSTORAGEFLR3,Mixing/Well-Stirred
RoomAir Model,FRONTSTORAGEFLR4,Mixing/Well-Stirred
RoomAir Model,GUESTROOM101,Mixing/Well-Stirred
RoomAir Model,GUESTROOM102,Mixing/Well-Stirred
RoomAir Model,GUESTROOM103,Mixing/Well-Stirred
RoomAir Model,GUESTROOM104,Mixing/Well-Stirred
RoomAir Model,GUESTROOM105,Mixing/Well-Stirred
RoomAir Model,GUESTROOM201,Mixing/Well-Stirred
RoomAir Model,GUESTROOM202_205,Mixing/Well-Stirred
RoomAir Model,GUESTROOM206_208,Mixing/Well-Stirred
RoomAir Model,GUESTROOM209_212,Mixing/Well-Stirred
RoomAir Model,GUESTROOM213,Mixing/Well-Stirred
RoomAir Model,GUESTROOM214,Mixing/Well-Stirred
RoomAir Model,GUESTROOM215_218,Mixing/Well-Stirred
RoomAir Model,GUESTROOM219,Mixing/Well-Stirred
RoomAir Model,GUESTROOM220_223,Mixing/Well-Stirred
RoomAir Model,GUESTROOM224,Mixing/Well-Stirred
RoomAir Model,GUESTROOM301,Mixing/Well-Stirred
RoomAir Model,GUESTROOM302_305,Mixing/Well-Stirred
RoomAir Model,GUESTROOM306_308,Mixing/Well-Stirred
RoomAir Model,GUESTROOM309_312,Mixing/Well-Stirred
RoomAir Model,GUESTROOM313,Mixing/Well-Stirred
RoomAir Model,GUESTROOM314,Mixing/Well-Stirred
RoomAir Model,GUESTROOM315_318,Mixing/Well-Stirred
RoomAir Model,GUESTROOM319,Mixing/Well-Stirred
RoomAir Model,GUESTROOM320_323,Mixing/Well-Stirred
RoomAir Model,GUESTROOM324,Mixing/Well-Stirred
RoomAir Model,GUESTROOM401,Mixing/Well-Stirred
RoomAir Model,GUESTROOM402_405,Mixing/Well-Stirred
RoomAir Model,GUESTROOM406_408,Mixing/Well-Stirred
RoomAir Model,GUESTROOM409_412,Mixing/Well-Stirred
RoomAir Model,GUESTROOM413,Mixing/Well-Stirred
RoomAir Model,GUESTROOM414,Mixing/Well-Stirred
RoomAir Model,GUESTROOM415_418,Mixing/Well-Stirred
RoomAir Model,GUESTROOM419,Mixing/Well-Stirred
RoomAir Model,GUESTROOM420_423,Mixing/Well-Stirred
RoomAir Model,GUESTROOM424,Mixing/Well-Stirred
RoomAir Model,LAUNDRYROOMFLR1,Mixing/Well-Stirred
RoomAir Model,MECHANICALROOMFLR1,Mixing/Well-Stirred
RoomAir Model,MEETINGROOMFLR1,Mixing/Well-Stirred
RoomAir Model,REARSTAIRSFLR1,Mixing/Well-Stirred
RoomAir Model,REARSTAIRSFLR2,Mixing/Well-Stirred
RoomAir Model,REARSTAIRSFLR3,Mixing/Well-Stirred
RoomAir Model,REARSTAIRSFLR4,Mixing/Well-Stirred
RoomAir Model,REARSTORAGEFLR1,Mixing/Well-Stirred
RoomAir Model,REARSTORAGEFLR2,Mixing/Well-Stirred
RoomAir Model,REARSTORAGEFLR3,Mixing/Well-Stirred
RoomAir Model,REARSTORAGEFLR4,Mixing/Well-Stirred
RoomAir Model,RESTROOMFLR1,Mixing/Well-Stirred
! <AirflowNetwork Model:Control>, No Multizone or Distribution/Multizone with Distribution/Multizone without Distribution/Multizone with Distribution only during Fan Operation
AirflowNetwork Model:Control,NoMultizoneOrDistribution
! <Zone Volume Capacitance Multiplier>, Sensible Heat Capacity Multiplier, Moisture Capacity Multiplier, Carbon Dioxide Capacity Multiplier, Generic Contaminant Capacity Multiplier
Zone Volume Capacitance Multiplier,   1.000 ,   1.000,   1.000,   1.000
! <Load Timesteps in Zone Design Calculation Averaging Window>, Value
 Load Timesteps in Zone Design Calculation Averaging Window,    4
! <Heating Sizing Factor Information>, Sizing Factor ID, Value
 Heating Sizing Factor Information, Global,   1.2000    
 Heating Sizing Factor Information, Zone CORRIDORFLR1,   1.2000    
 Heating Sizing Factor Information, Zone CORRIDORFLR2,   1.2000    
 Heating Sizing Factor Information, Zone CORRIDORFLR3,   1.2000    
 Heating Sizing Factor Information, Zone CORRIDORFLR4,   1.2000    
 Heating Sizing Factor Information, Zone EMPLOYEELOUNGEFLR1,   1.2000    
 Heating Sizing Factor Information, Zone EXERCISECENTERFLR1,   1.2000    
 Heating Sizing Factor Information, Zone FRONTLOUNGEFLR1,   1.2000    
 Heating Sizing Factor Information, Zone FRONTOFFICEFLR1,   1.2000    
 Heating Sizing Factor Information, Zone FRONTSTAIRSFLR1,   1.2000    
 Heating Sizing Factor Information, Zone FRONTSTAIRSFLR2,   1.2000    
 Heating Sizing Factor Information, Zone FRONTSTAIRSFLR3,   1.2000    
 Heating Sizing Factor Information, Zone FRONTSTAIRSFLR4,   1.2000    
 Heating Sizing Factor Information, Zone FRONTSTORAGEFLR1,   1.2000    
 Heating Sizing Factor Information, Zone FRONTSTORAGEFLR2,   1.2000    
 Heating Sizing Factor Information, Zone FRONTSTORAGEFLR3,   1.2000    
 Heating Sizing Factor Information, Zone FRONTSTORAGEFLR4,   1.2000    
 Heating Sizing Factor Information, Zone GUESTROOM101,   1.2000    
 Heating Sizing Factor Information, Zone GUESTROOM102,   1.2000    
 Heating Sizing Factor Information, Zone GUESTROOM103,   1.2000    
 Heating Sizing Factor Information, Zone GUESTROOM104,   1.2000    
 Heating Sizing Factor Information, Zone GUESTROOM105,   1.2000    
 Heating Sizing Factor Information, Zone GUESTROOM201,   1.2000    
 Heating Sizing Factor Information, Zone GUESTROOM202_205,   1.2000    
 Heating Sizing Factor Information, Zone GUESTROOM206_208,   1.2000    
 Heating Sizing Factor Information, Zone GUESTROOM209_212,   1.2000    
 Heating Sizing Factor Information, Zone GUESTROOM213,   1.2000    
 Heating Sizing Factor Information, Zone GUESTROOM214,   1.2000    
 Heating Sizing Factor Information, Zone GUESTROOM215_218,   1.2000    
 Heating Sizing Factor Information, Zone GUESTROOM219,   1.2000    
 Heating Sizing Factor Information, Zone GUESTROOM220_223,   1.2000    
 Heating Sizing Factor Information, Zone GUESTROOM224,   1.2000    
 Heating Sizing Factor Information, Zone GUESTROOM301,   1.2000    
 Heating Sizing Factor Information, Zone GUESTROOM302_305,   1.2000    
 Heating Sizing Factor Information, Zone GUESTROOM306_308,   1.2000    
 Heating Sizing Factor Information, Zone GUESTROOM309_312,   1.2000    
 Heating Sizing Factor Information, Zone GUESTROOM313,   1.2000    
 Heating Sizing Factor Information, Zone GUESTROOM314,   1.2000    
 Heating Sizing Factor Information, Zone GUESTROOM315_318,   1.2000    
 Heating Sizing Factor Information, Zone GUESTROOM319,   1.2000    
 Heating Sizing Factor Information, Zone GUESTROOM320_323,   1.2000    
 Heating Sizing Factor Information, Zone GUESTROOM324,   1.2000    
 Heating Sizing Factor Information, Zone GUESTROOM401,   1.2000    
 Heating Sizing Factor Information, Zone GUESTROOM402_405,   1.2000    
 Heating Sizing Factor Information, Zone GUESTROOM406_408,   1.2000    
 Heating Sizing Factor Information, Zone GUESTROOM409_412,   1.2000    
 Heating Sizing Factor Information, Zone GUESTROOM413,   1.2000    
 Heating Sizing Factor Information, Zone GUESTROOM414,   1.2000    
 Heating Sizing Factor Information, Zone GUESTROOM415_418,   1.2000    
 Heating Sizing Factor Information, Zone GUESTROOM419,   1.2000    
 Heating Sizing Factor Information, Zone GUESTROOM420_423,   1.2000    
 Heating Sizing Factor Information, Zone GUESTROOM424,   1.2000    
 Heating Sizing Factor Information, Zone LAUNDRYROOMFLR1,   1.2000    
 Heating Sizing Factor Information, Zone MECHANICALROOMFLR1,   1.2000    
 Heating Sizing Factor Information, Zone MEETINGROOMFLR1,   1.2000    
 Heating Sizing Factor Information, Zone REARSTAIRSFLR1,   1.2000    
 Heating Sizing Factor Information, Zone REARSTAIRSFLR2,   1.2000    
 Heating Sizing Factor Information, Zone REARSTAIRSFLR3,   1.2000    
 Heating Sizing Factor Information, Zone REARSTAIRSFLR4,   1.2000    
 Heating Sizing Factor Information, Zone REARSTORAGEFLR1,   1.2000    
[...]
 Component Sizing Information, Coil:Cooling:DX:SingleSpeed, PSZ-HEATCOOL:5_COOLC DXCOIL, Design Size Gross Rated Total Cooling Capacity [W], 1073.43973
 Component Sizing Information, Coil:Cooling:DX:SingleSpeed, PSZ-HEATCOOL:5_COOLC DXCOIL, Design Size Gross Rated Sensible Heat Ratio, 0.74883
 DX Cooling Coil Standard Rating Information, Coil:Cooling:DX:SingleSpeed, PSZ-HEATCOOL:5_COOLC DXCOIL, 1037.2, 3.15, 10.74, 10.82, 10.85
 Component Sizing Information, Coil:Heating:Fuel, PSZ-HEATCOOL:5_HEATC, Design Size Nominal Capacity [W], 1466.75353
 Component Sizing Information, Fan:ConstantVolume, PSZ-HEATCOOL:5_FAN, Design Size Maximum Flow Rate [m3/s], 5.04151E-002
 Component Sizing Information, Controller:OutdoorAir, PSZ-HEATCOOL:6_OA_CONTROLLER, Maximum Outdoor Air Flow Rate [m3/s], 0.30709
 Component Sizing Information, Controller:OutdoorAir, PSZ-HEATCOOL:6_OA_CONTROLLER, Minimum Outdoor Air Flow Rate [m3/s], 8.80000E-002
 Component Sizing Information, Coil:Cooling:DX:SingleSpeed, PSZ-HEATCOOL:6_COOLC DXCOIL, Design Size Rated Air Flow Rate [m3/s], 0.30709
 Component Sizing Information, Coil:Cooling:DX:SingleSpeed, PSZ-HEATCOOL:6_COOLC DXCOIL, Design Size Gross Rated Total Cooling Capacity [W], 7625.77990
 Component Sizing Information, Coil:Cooling:DX:SingleSpeed, PSZ-HEATCOOL:6_COOLC DXCOIL, Design Size Gross Rated Sensible Heat Ratio, 0.69808
 DX Cooling Coil Standard Rating Information, Coil:Cooling:DX:SingleSpeed, PSZ-HEATCOOL:6_COOLC DXCOIL, 7407.5, 3.22, 10.98, 11.08, 11.24
 Component Sizing Information, Coil:Heating:Fuel, PSZ-HEATCOOL:6_HEATC, Design Size Nominal Capacity [W], 10410.74647
 Component Sizing Information, Fan:ConstantVolume, PSZ-HEATCOOL:6_FAN, Design Size Maximum Flow Rate [m3/s], 0.30709
 Component Sizing Information, Controller:OutdoorAir, PSZ-HEATCOOL:7_OA_CONTROLLER, Maximum Outdoor Air Flow Rate [m3/s], 1.31473
 Component Sizing Information, Controller:OutdoorAir, PSZ-HEATCOOL:7_OA_CONTROLLER, Minimum Outdoor Air Flow Rate [m3/s], 0.14300
 Component Sizing Information, Coil:Cooling:DX:SingleSpeed, PSZ-HEATCOOL:7_COOLC DXCOIL, Design Size Rated Air Flow Rate [m3/s], 1.31473
 Component Sizing Information, Coil:Cooling:DX:SingleSpeed, PSZ-HEATCOOL:7_COOLC DXCOIL, Design Size Gross Rated Total Cooling Capacity [W], 24259.24177
 Component Sizing Information, Coil:Cooling:DX:SingleSpeed, PSZ-HEATCOOL:7_COOLC DXCOIL, Design Size Gross Rated Sensible Heat Ratio, 0.80083
 DX Cooling Coil Standard Rating Information, Coil:Cooling:DX:SingleSpeed, PSZ-HEATCOOL:7_COOLC DXCOIL, 23303.6, 2.95, 10.07, 10.14, 10.09
 Component Sizing Information, Coil:Heating:Fuel, PSZ-HEATCOOL:7_HEATC, Design Size Nominal Capacity [W], 35568.52060
 Component Sizing Information, Fan:ConstantVolume, PSZ-HEATCOOL:7_FAN, Design Size Maximum Flow Rate [m3/s], 1.31473
 Component Sizing Information, Controller:OutdoorAir, PSZ-HEATCOOL:8_OA_CONTROLLER, Maximum Outdoor Air Flow Rate [m3/s], 0.12004
 Component Sizing Information, Controller:OutdoorAir, PSZ-HEATCOOL:8_OA_CONTROLLER, Minimum Outdoor Air Flow Rate [m3/s], 0.11000
 Component Sizing Information, Coil:Cooling:DX:SingleSpeed, PSZ-HEATCOOL:8_COOLC DXCOIL, Design Size Rated Air Flow Rate [m3/s], 0.12004
 Component Sizing Information, Coil:Cooling:DX:SingleSpeed, PSZ-HEATCOOL:8_COOLC DXCOIL, Design Size Gross Rated Total Cooling Capacity [W], 2980.84537
 Component Sizing Information, Coil:Cooling:DX:SingleSpeed, PSZ-HEATCOOL:8_COOLC DXCOIL, Design Size Gross Rated Sensible Heat Ratio, 0.69808
 DX Cooling Coil Standard Rating Information, Coil:Cooling:DX:SingleSpeed, PSZ-HEATCOOL:8_COOLC DXCOIL, 2895.5, 3.22, 10.98, 11.08, 11.24
 Component Sizing Information, Coil:Heating:Fuel, PSZ-HEATCOOL:8_HEATC, Design Size Nominal Capacity [W], 6980.78439
 Component Sizing Information, Fan:ConstantVolume, PSZ-HEATCOOL:8_FAN, Design Size Maximum Flow Rate [m3/s], 0.12004
 Component Sizing Information, Controller:OutdoorAir, PSZ-HEATCOOL:9_OA_CONTROLLER, Maximum Outdoor Air Flow Rate [m3/s], 0.32135
 Component Sizing Information, Controller:OutdoorAir, PSZ-HEATCOOL:9_OA_CONTROLLER, Minimum Outdoor Air Flow Rate [m3/s], 0.10000
 Component Sizing Information, Coil:Cooling:DX:SingleSpeed, PSZ-HEATCOOL:9_COOLC DXCOIL, Design Size Rated Air Flow Rate [m3/s], 0.32135
 Component Sizing Information, Coil:Cooling:DX:SingleSpeed, PSZ-HEATCOOL:9_COOLC DXCOIL, Design Size Gross Rated Total Cooling Capacity [W], 7979.99542
 Component Sizing Information, Coil:Cooling:DX:SingleSpeed, PSZ-HEATCOOL:9_COOLC DXCOIL, Design Size Gross Rated Sensible Heat Ratio, 0.69808
 DX Cooling Coil Standard Rating Information, Coil:Cooling:DX:SingleSpeed, PSZ-HEATCOOL:9_COOLC DXCOIL, 7751.6, 3.22, 10.98, 11.08, 11.24
 Component Sizing Information, Coil:Heating:Fuel, PSZ-HEATCOOL:9_HEATC, Design Size Nominal Capacity [W], 11199.02272
 Component Sizing Information, Fan:ConstantVolume, PSZ-HEATCOOL:9_FAN, Design Size Maximum Flow Rate [m3/s], 0.32135
Water Heater Information,WaterHeater:Mixed,SWHSYS1 WATER HEATER,2.0000,845000.0,0.348,0.6803
 Component Sizing Information, PlantLoop, SWHSYS1, Maximum Loop Flow Rate [m3/s], 2.11910E-004
 Component Sizing Information, PlantLoop, SWHSYS1, Plant Loop Volume [m3], 2.54292E-002
 Component Sizing Information, Pump:VariableSpeed, SWHSYS1 PUMP, Design Flow Rate [m3/s], 2.11910E-004
 Component Sizing Information, Pump:VariableSpeed, SWHSYS1 PUMP, Design Power Consumption [W], 54.14029
 Component Sizing Information, WaterHeater:Mixed, SWHSYS1 WATER HEATER, Use Side Design Flow Rate [m3/s], 2.11910E-004
! <Environment>,Environment Name,Environment Type, Start Date, End Date, Start DayOfWeek, Duration {#days}, Source:Start DayOfWeek,  Use Daylight Saving, Use Holidays, Apply Weekend Holiday Rule,  Use Rain Values, Use Snow Values
! <Environment:Special Days>, Special Day Name, Special Day Type, Source, Start Date, Duration {#days}
! <Environment:Daylight Saving>, Daylight Saving Indicator, Source, Start Date, End Date
! <Environment:WarmupDays>, NumberofWarmupDays
Environment,BALTIMORE MD USA TMY2-93721 WMO#=724060,WeatherFileRunPeriod,01/01,12/31,Sunday,365,Use RunPeriod Specified Day,No,No,No,Yes,Yes
Environment:Daylight Saving,Yes,InputFile,03/12,11/05
Environment:Special Days,NEW YEARS DAY,Holiday,InputFile,01/01,  1
Environment:Special Days,VETERANS DAY,Holiday,InputFile,11/11,  1
Environment:Special Days,CHRISTMAS,Holiday,InputFile,12/25,  1
Environment:Special Days,INDEPENDENCE DAY,Holiday,InputFile,07/04,  1
Environment:Special Days,MLK DAY,Holiday,InputFile,01/16,  1
Environment:Special Days,PRESIDENTS DAY,Holiday,InputFile,02/20,  1
Environment:Special Days,MEMORIAL DAY,Holiday,InputFile,05/29,  1
Environment:Special Days,LABOR DAY,Holiday,InputFile,09/04,  1
Environment:Special Days,COLUMBUS DAY,Holiday,InputFile,10/09,  1
Environment:Special Days,THANKSGIVING,Holiday,InputFile,11/23,  1
Environment:WarmupDays,  6
! <Warmup Convergence Information>,Zone Name,Environment Type/Name,Average Warmup Temperature Difference {deltaC},Std Dev Warmup Temperature Difference {deltaC},Max Temperature Pass/Fail Convergence,Min Temperature Pass/Fail Convergence,Average Warmup Load Difference {W},Std Dev Warmup Load Difference {W},Heating Load Pass/Fail Convergence,Cooling Load Pass/Fail Convergence
 Warmup Convergence Information,CORRIDORFLR1,RunPeriod: BALTIMORE MD USA TMY2-93721 WMO#=724060,4.9467896878E-002,4.5002558908E-002,Pass,Pass,2.7421237074E-002,3.4168586924E-002,Pass,Pass
 Warmup Convergence Information,CORRIDORFLR2,RunPeriod: BALTIMORE MD USA TMY2-93721 WMO#=724060,1.2511669142E-002,9.3344265168E-003,Pass,Pass,7.4829120644E-003,7.5111045497E-003,Pass,Pass
 Warmup Convergence Information,CORRIDORFLR3,RunPeriod: BALTIMORE MD USA TMY2-93721 WMO#=724060,1.1387760882E-002,8.9572507646E-003,Pass,Pass,7.5853811208E-003,7.5762985061E-003,Pass,Pass
 Warmup Convergence Information,CORRIDORFLR4,RunPeriod: BALTIMORE MD USA TMY2-93721 WMO#=724060,2.2223900777E-006,2.0859264930E-006,Pass,Pass,2.0615102355E-002,1.3615977005E-002,Pass,Pass
 Warmup Convergence Information,ELEVATORCOREFLR1,RunPeriod: BALTIMORE MD USA TMY2-93721 WMO#=724060,1.4574925491,2.1716154742,Pass,Pass,0.0000000000,0.0000000000,Pass,Pass
 Warmup Convergence Information,ELEVATORCOREFLR2,RunPeriod: BALTIMORE MD USA TMY2-93721 WMO#=724060,6.3470330394E-002,3.6145215417E-002,Pass,Pass,0.0000000000,0.0000000000,Pass,Pass
 Warmup Convergence Information,ELEVATORCOREFLR3,RunPeriod: BALTIMORE MD USA TMY2-93721 WMO#=724060,7.0373826364E-003,4.6654375461E-003,Pass,Pass,0.0000000000,0.0000000000,Pass,Pass
 Warmup Convergence Information,ELEVATORCOREFLR4,RunPeriod: BALTIMORE MD USA TMY2-93721 WMO#=724060,1.7569592582E-002,1.0563119881E-002,Pass,Pass,0.0000000000,0.0000000000,Pass,Pass
 Warmup Convergence Information,EMPLOYEELOUNGEFLR1,RunPeriod: BALTIMORE MD USA TMY2-93721 WMO#=724060,3.8504623353E-002,9.9701351611E-002,Pass,Pass,4.0616197359E-002,9.6922595962E-002,Pass,Pass
 Warmup Convergence Information,EXERCISECENTERFLR1,RunPeriod: BALTIMORE MD USA TMY2-93721 WMO#=724060,7.4073502305E-004,1.0773517153E-003,Pass,Pass,0.1275006334,0.3397653576,Pass,Pass
 Warmup Convergence Information,FRONTLOUNGEFLR1,RunPeriod: BALTIMORE MD USA TMY2-93721 WMO#=724060,2.1095621548E-005,3.8750270082E-005,Pass,Pass,0.3645731139,1.3814535840,Pass,Pass
 Warmup Convergence Information,FRONTOFFICEFLR1,RunPeriod: BALTIMORE MD USA TMY2-93721 WMO#=724060,3.8897583764E-005,5.6784138314E-005,Pass,Pass,2.2443691671E-002,5.0139118753E-002,Pass,Pass
 Warmup Convergence Information,FRONTSTAIRSFLR1,RunPeriod: BALTIMORE MD USA TMY2-93721 WMO#=724060,1.3621477369E-002,1.0135152534E-002,Pass,Pass,0.0000000000,0.0000000000,Pass,Pass
 Warmup Convergence Information,FRONTSTAIRSFLR2,RunPeriod: BALTIMORE MD USA TMY2-93721 WMO#=724060,1.1882412209E-002,8.1689475052E-003,Pass,Pass,0.0000000000,0.0000000000,Pass,Pass
 Warmup Convergence Information,FRONTSTAIRSFLR3,RunPeriod: BALTIMORE MD USA TMY2-93721 WMO#=724060,1.1660467547E-002,8.1996644285E-003,Pass,Pass,0.0000000000,0.0000000000,Pass,Pass
 Warmup Convergence Information,FRONTSTAIRSFLR4,RunPeriod: BALTIMORE MD USA TMY2-93721 WMO#=724060,1.4743756687E-006,3.3447045959E-006,Pass,Pass,1.8184657536E-002,1.2408694753E-002,Pass,Pass
 Warmup Convergence Information,FRONTSTORAGEFLR1,RunPeriod: BALTIMORE MD USA TMY2-93721 WMO#=724060,1.0496464488E-002,6.0623106203E-003,Pass,Pass,0.0000000000,0.0000000000,Pass,Pass
 Warmup Convergence Information,FRONTSTORAGEFLR2,RunPeriod: BALTIMORE MD USA TMY2-93721 WMO#=724060,1.0105415976E-002,7.2631862295E-003,Pass,Pass,0.0000000000,0.0000000000,Pass,Pass
 Warmup Convergence Information,FRONTSTORAGEFLR3,RunPeriod: BALTIMORE MD USA TMY2-93721 WMO#=724060,9.3761479668E-003,6.5398387442E-003,Pass,Pass,0.0000000000,0.0000000000,Pass,Pass
 Warmup Convergence Information,FRONTSTORAGEFLR4,RunPeriod: BALTIMORE MD USA TMY2-93721 WMO#=724060,1.4474462564E-002,8.7920403368E-003,Pass,Pass,0.0000000000,0.0000000000,Pass,Pass
 Warmup Convergence Information,GUESTROOM101,RunPeriod: BALTIMORE MD USA TMY2-93721 WMO#=724060,5.4878582628E-002,6.2754341361E-002,Pass,Pass,0.0000000000,0.0000000000,Pass,Pass
 Warmup Convergence Information,GUESTROOM102,RunPeriod: BALTIMORE MD USA TMY2-93721 WMO#=724060,5.6674243575E-002,6.2700110585E-002,Pass,Pass,0.0000000000,0.0000000000,Pass,Pass
 Warmup Convergence Information,GUESTROOM103,RunPeriod: BALTIMORE MD USA TMY2-93721 WMO#=724060,5.2601609867E-002,6.1040487065E-002,Pass,Pass,0.0000000000,0.0000000000,Pass,Pass
 Warmup Convergence Information,GUESTROOM104,RunPeriod: BALTIMORE MD USA TMY2-93721 WMO#=724060,5.3166121598E-002,6.2009600052E-002,Pass,Pass,0.0000000000,0.0000000000,Pass,Pass
 Warmup Convergence Information,GUESTROOM105,RunPeriod: BALTIMORE MD USA TMY2-93721 WMO#=724060,5.3175947362E-002,6.3942101726E-002,Pass,Pass,0.0000000000,0.0000000000,Pass,Pass
 Warmup Convergence Information,GUESTROOM201,RunPeriod: BALTIMORE MD USA TMY2-93721 WMO#=724060,5.6164718220E-002,7.0364931399E-002,Pass,Pass,0.0000000000,0.0000000000,Pass,Pass
 Warmup Convergence Information,GUESTROOM202_205,RunPeriod: BALTIMORE MD USA TMY2-93721 WMO#=724060,1.8541551455E-002,3.6038020504E-002,Pass,Pass,0.1989587116,0.8430419394,Pass,Pass
 Warmup Convergence Information,GUESTROOM206_208,RunPeriod: BALTIMORE MD USA TMY2-93721 WMO#=724060,8.4078876648E-003,2.1726395517E-002,Pass,Pass,0.2595076473,0.8439816997,Pass,Pass
 Warmup Convergence Information,GUESTROOM209_212,RunPeriod: BALTIMORE MD USA TMY2-93721 WMO#=724060,8.8940912802E-003,2.2361023025E-002,Pass,Pass,0.2969833256,0.9565733732,Pass,Pass
 Warmup Convergence Information,GUESTROOM213,RunPeriod: BALTIMORE MD USA TMY2-93721 WMO#=724060,5.2334347662E-002,6.6001031863E-002,Pass,Pass,0.0000000000,0.0000000000,Pass,Pass
 Warmup Convergence Information,GUESTROOM214,RunPeriod: BALTIMORE MD USA TMY2-93721 WMO#=724060,5.2179387203E-002,6.6011902003E-002,Pass,Pass,0.0000000000,0.0000000000,Pass,Pass
 Warmup Convergence Information,GUESTROOM215_218,RunPeriod: BALTIMORE MD USA TMY2-93721 WMO#=724060,2.4871732545E-003,8.4331138203E-003,Pass,Pass,0.1947686913,0.6354751751,Pass,Pass
 Warmup Convergence Information,GUESTROOM219,RunPeriod: BALTIMORE MD USA TMY2-93721 WMO#=724060,5.6883193914E-004,6.6677042102E-004,Pass,Pass,4.0887101030E-002,6.7829119923E-002,Pass,Pass
 Warmup Convergence Information,GUESTROOM220_223,RunPeriod: BALTIMORE MD USA TMY2-93721 WMO#=724060,1.5181652813E-002,3.0563383066E-002,Pass,Pass,0.1429633024,0.5467665210,Pass,Pass
 Warmup Convergence Information,GUESTROOM224,RunPeriod: BALTIMORE MD USA TMY2-93721 WMO#=724060,4.7645251993E-002,6.2971207925E-002,Pass,Pass,1.5069853656E-002,8.0165397945E-002,Pass,Pass
 Warmup Convergence Information,GUESTROOM301,RunPeriod: BALTIMORE MD USA TMY2-93721 WMO#=724060,5.3680702374E-002,6.6904209291E-002,Pass,Pass,0.0000000000,0.0000000000,Pass,Pass
 Warmup Convergence Information,GUESTROOM302_305,RunPeriod: BALTIMORE MD USA TMY2-93721 WMO#=724060,2.5514103411E-002,4.2590753875E-002,Pass,Pass,7.5729041327E-002,0.2706463384,Pass,Pass
 Warmup Convergence Information,GUESTROOM306_308,RunPeriod: BALTIMORE MD USA TMY2-93721 WMO#=724060,2.2759212803E-002,3.9367458703E-002,Pass,Pass,6.9758352176E-002,0.2358827280,Pass,Pass
 Warmup Convergence Information,GUESTROOM309_312,RunPeriod: BALTIMORE MD USA TMY2-93721 WMO#=724060,2.2187062597E-002,3.9202806876E-002,Pass,Pass,7.0423767413E-002,0.2277350925,Pass,Pass
 Warmup Convergence Information,GUESTROOM313,RunPeriod: BALTIMORE MD USA TMY2-93721 WMO#=724060,5.0618458541E-002,6.4475891679E-002,Pass,Pass,0.0000000000,0.0000000000,Pass,Pass
 Warmup Convergence Information,GUESTROOM314,RunPeriod: BALTIMORE MD USA TMY2-93721 WMO#=724060,5.1090270422E-002,6.4863042020E-002,Pass,Pass,0.0000000000,0.0000000000,Pass,Pass
 Warmup Convergence Information,GUESTROOM315_318,RunPeriod: BALTIMORE MD USA TMY2-93721 WMO#=724060,2.1475794037E-002,3.8186059351E-002,Pass,Pass,7.0473180064E-002,0.2234420050,Pass,Pass
 Warmup Convergence Information,GUESTROOM319,RunPeriod: BALTIMORE MD USA TMY2-93721 WMO#=724060,1.7500371247E-002,3.2579756646E-002,Pass,Pass,0.2036785584,0.9115047104,Pass,Pass
 Warmup Convergence Information,GUESTROOM320_323,RunPeriod: BALTIMORE MD USA TMY2-93721 WMO#=724060,2.8106227568E-002,4.5766130145E-002,Pass,Pass,8.5314566252E-002,0.3381529684,Pass,Pass
 Warmup Convergence Information,GUESTROOM324,RunPeriod: BALTIMORE MD USA TMY2-93721 WMO#=724060,5.1702445643E-002,6.5202643660E-002,Pass,Pass,0.0000000000,0.0000000000,Pass,Pass
 Warmup Convergence Information,GUESTROOM401,RunPeriod: BALTIMORE MD USA TMY2-93721 WMO#=724060,8.9103342792E-005,1.0158642996E-004,Pass,Pass,0.1217057465,0.3265367575,Pass,Pass
 Warmup Convergence Information,GUESTROOM402_405,RunPeriod: BALTIMORE MD USA TMY2-93721 WMO#=724060,4.1762421655E-002,7.1567975261E-002,Pass,Pass,7.5196692236E-002,0.1988502814,Pass,Pass
 Warmup Convergence Information,GUESTROOM406_408,RunPeriod: BALTIMORE MD USA TMY2-93721 WMO#=724060,4.1405526012E-002,7.0265400195E-002,Pass,Pass,7.3052957234E-002,0.1835060736,Pass,Pass
 Warmup Convergence Information,GUESTROOM409_412,RunPeriod: BALTIMORE MD USA TMY2-93721 WMO#=724060,4.2431220840E-002,7.2078511706E-002,Pass,Pass,7.8105366227E-002,0.2105406207,Pass,Pass
 Warmup Convergence Information,GUESTROOM413,RunPeriod: BALTIMORE MD USA TMY2-93721 WMO#=724060,3.9062154219E-003,1.9788199452E-002,Pass,Pass,8.7029517955E-002,0.1850388992,Pass,Pass
 Warmup Convergence Information,GUESTROOM414,RunPeriod: BALTIMORE MD USA TMY2-93721 WMO#=724060,2.3268764276E-003,1.1690139880E-002,Pass,Pass,7.6274114430E-002,0.1627721667,Pass,Pass
 Warmup Convergence Information,GUESTROOM415_418,RunPeriod: BALTIMORE MD USA TMY2-93721 WMO#=724060,4.0652352458E-002,7.0764084109E-002,Pass,Pass,7.0948933861E-002,0.1959513849,Pass,Pass
 Warmup Convergence Information,GUESTROOM419,RunPeriod: BALTIMORE MD USA TMY2-93721 WMO#=724060,2.9483690584E-002,5.6731875085E-002,Pass,Pass,8.2619290846E-002,0.2688735858,Pass,Pass
 Warmup Convergence Information,GUESTROOM420_423,RunPeriod: BALTIMORE MD USA TMY2-93721 WMO#=724060,3.8200717385E-002,6.8511419506E-002,Pass,Pass,0.1744585219,0.9866996848,Pass,Pass
 Warmup Convergence Information,GUESTROOM424,RunPeriod: BALTIMORE MD USA TMY2-93721 WMO#=724060,9.1799554372E-003,3.7625068007E-002,Pass,Pass,0.1012357533,0.2269565144,Pass,Pass
 Warmup Convergence Information,LAUNDRYROOMFLR1,RunPeriod: BALTIMORE MD USA TMY2-93721 WMO#=724060,6.4557878536E-002,0.1889998783,Pass,Pass,5.8394800753E-002,0.2684201009,Pass,Pass
 Warmup Convergence Information,MECHANICALROOMFLR1,RunPeriod: BALTIMORE MD USA TMY2-93721 WMO#=724060,1.4003100922E-002,1.6729512956E-002,Pass,Pass,2.0537857460E-002,2.4371313267E-002,Pass,Pass
 Warmup Convergence Information,MEETINGROOMFLR1,RunPeriod: BALTIMORE MD USA TMY2-93721 WMO#=724060,1.7897338023E-004,3.7448137056E-004,Pass,Pass,0.1820581838,0.3290326745,Pass,Pass
 Warmup Convergence Information,REARSTAIRSFLR1,RunPeriod: BALTIMORE MD USA TMY2-93721 WMO#=724060,1.6175796518E-002,1.1353813172E-002,Pass,Pass,0.0000000000,0.0000000000,Pass,Pass
 Warmup Convergence Information,REARSTAIRSFLR2,RunPeriod: BALTIMORE MD USA TMY2-93721 WMO#=724060,1.3310978001E-002,8.9574154293E-003,Pass,Pass,0.0000000000,0.0000000000,Pass,Pass
 Warmup Convergence Information,REARSTAIRSFLR3,RunPeriod: BALTIMORE MD USA TMY2-93721 WMO#=724060,1.3419343047E-002,9.1597198177E-003,Pass,Pass,0.0000000000,0.0000000000,Pass,Pass
 Warmup Convergence Information,REARSTAIRSFLR4,RunPeriod: BALTIMORE MD USA TMY2-93721 WMO#=724060,3.5299101478E-004,1.5147365886E-003,Pass,Pass,0.1084214280,0.2029631580,Pass,Pass
 Warmup Convergence Information,REARSTORAGEFLR1,RunPeriod: BALTIMORE MD USA TMY2-93721 WMO#=724060,1.6256293730E-002,1.0399332031E-002,Pass,Pass,0.0000000000,0.0000000000,Pass,Pass
 Warmup Convergence Information,REARSTORAGEFLR2,RunPeriod: BALTIMORE MD USA TMY2-93721 WMO#=724060,1.3931323155E-002,8.6421996680E-003,Pass,Pass,0.0000000000,0.0000000000,Pass,Pass
 Warmup Convergence Information,REARSTORAGEFLR3,RunPeriod: BALTIMORE MD USA TMY2-93721 WMO#=724060,1.3631405232E-002,8.8375899847E-003,Pass,Pass,0.0000000000,0.0000000000,Pass,Pass
 Warmup Convergence Information,REARSTORAGEFLR4,RunPeriod: BALTIMORE MD USA TMY2-93721 WMO#=724060,1.4561184900E-002,1.3906424664E-002,Pass,Pass,5.9639841508E-002,0.1546229636,Pass,Pass
 Warmup Convergence Information,RESTROOMFLR1,RunPeriod: BALTIMORE MD USA TMY2-93721 WMO#=724060,2.5698705824E-002,3.3353664463E-002,Pass,Pass,1.9481163653E-002,7.2808482489E-002,Pass,Pass
! <Program Control Information:Threads/Parallel Sims>, Threading Supported,Maximum Number of Threads, Env Set Threads (OMP_NUM_THREADS), EP Env Set Threads (EP_OMP_NUM_THREADS), IDF Set Threads, Number of Threads Used (Interior Radiant Exchange), Number Nominal Surfaces, Number Parallel Sims
Program Control:Threads/Parallel Sims, No,1, N/A, N/A, N/A, N/A, N/A, N/A
End of Data
