Program Version,EnergyPlus, Version 8.8.0-7c3bbe4830, YMD=2018.08.31 08:06
! <Version>, Version ID
 Version, 8.8
! <Timesteps per Hour>, #TimeSteps, Minutes per TimeStep {minutes}
 Timesteps per Hour,  6, 10
! <System Convergence Limits>, Minimum System TimeStep {minutes}, Max HVAC Iterations, Minimum Plant Iterations, Maximum Plant Iterations
 System Convergence Limits, 2, 25, 2, 8
! <Simulation Control>, Do Zone Sizing, Do System Sizing, Do Plant Sizing, Do Design Days, Do Weather Simulation, Do HVAC Sizing Simulation
 Simulation Control, Yes, Yes, Yes, No, Yes, No
! <Output Reporting Tolerances>, Tolerance for Time Heating Setpoint Not Met, Tolerance for Zone Cooling Setpoint Not Met Time
 Output Reporting Tolerances, 0.556, 0.556, 
! <Site:GroundTemperature:BuildingSurface>,Jan{C},Feb{C},Mar{C},Apr{C},May{C},Jun{C},Jul{C},Aug{C},Sep{C},Oct{C},Nov{C},Dec{C}
 Site:GroundTemperature:BuildingSurface,  19.71,  19.66,  19.71,  19.75,  20.49,  22.11,  22.46,  22.55,  22.17,  20.61,  20.05,  19.80
! <Site:GroundTemperature:FCfactorMethod>,Jan{C},Feb{C},Mar{C},Apr{C},May{C},Jun{C},Jul{C},Aug{C},Sep{C},Oct{C},Nov{C},Dec{C}
 Site:GroundTemperature:FCfactorMethod,   2.18,   1.16,   2.97,   5.81,  13.21,  18.93,  22.79,  23.96,  21.96,  17.52,  11.59,   6.09
! <Site:GroundTemperature:Shallow>,Jan{C},Feb{C},Mar{C},Apr{C},May{C},Jun{C},Jul{C},Aug{C},Sep{C},Oct{C},Nov{C},Dec{C}
 Site:GroundTemperature:Shallow,  13.00,  13.00,  13.00,  13.00,  13.00,  13.00,  13.00,  13.00,  13.00,  13.00,  13.00,  13.00
! <Site:GroundTemperature:Deep>,Jan{C},Feb{C},Mar{C},Apr{C},May{C},Jun{C},Jul{C},Aug{C},Sep{C},Oct{C},Nov{C},Dec{C}
 Site:GroundTemperature:Deep,  16.00,  16.00,  16.00,  16.00,  16.00,  16.00,  16.00,  16.00,  16.00,  16.00,  16.00,  16.00
! <Site:GroundReflectance>,Jan{dimensionless},Feb{dimensionless},Mar{dimensionless},Apr{dimensionless},May{dimensionless},Jun{dimensionless},Jul{dimensionless},Aug{dimensionless},Sep{dimensionless},Oct{dimensionless},Nov{dimensionless},Dec{dimensionless}
 Site:GroundReflectance,  0.20,  0.20,  0.20,  0.20,  0.20,  0.20,  0.20,  0.20,  0.20,  0.20,  0.20,  0.20
! <Site:GroundReflectance:SnowModifier>, Normal, Daylighting {dimensionless}
 Site:GroundReflectance:SnowModifier,   1.000,   1.000
! <Site:GroundReflectance:Snow>,Jan{dimensionless},Feb{dimensionless},Mar{dimensionless},Apr{dimensionless},May{dimensionless},Jun{dimensionless},Jul{dimensionless},Aug{dimensionless},Sep{dimensionless},Oct{dimensionless},Nov{dimensionless},Dec{dimensionless}
 Site:GroundReflectance:Snow,  0.20,  0.20,  0.20,  0.20,  0.20,  0.20,  0.20,  0.20,  0.20,  0.20,  0.20,  0.20
! <Site:GroundReflectance:Snow:Daylighting>,Jan{dimensionless},Feb{dimensionless},Mar{dimensionless},Apr{dimensionless},May{dimensionless},Jun{dimensionless},Jul{dimensionless},Aug{dimensionless},Sep{dimensionless},Oct{dimensionless},Nov{dimensionless},Dec{dimensionless}
 Site:GroundReflectance:Snow:Daylighting,  0.20,  0.20,  0.20,  0.20,  0.20,  0.20,  0.20,  0.20,  0.20,  0.20,  0.20,  0.20
! <Environment:Weather Station>,Wind Sensor Height Above Ground {m},Wind Speed Profile Exponent {},Wind Speed Profile Boundary Layer Thickness {m},Air Temperature Sensor Height Above Ground {m},Wind Speed Modifier Coefficient-Internal,Temperature Modifier Coefficient-Internal
Environment:Weather Station,10.000,0.140,270.000,1.500,1.586,9.750E-003
! <Site:Location>, Location Name, Latitude {N+/S- Deg}, Longitude {E+/W- Deg},  Time Zone Number {GMT+/-}, Elevation {m},  Standard Pressure at Elevation {Pa}, Standard RhoAir at Elevation
Site:Location,BALTIMORE MD USA TMY2-93721 WMO#=724060,39.18,-76.67,-5.00,47.00,100762,1.1976
! <Building Information>, Building Name,North Axis {deg},Terrain,  Loads Convergence Tolerance Value,Temperature Convergence Tolerance Value,  Solar Distribution,Maximum Number of Warmup Days,Minimum Number of Warmup Days
 Building Information,Ref Bldg Large Hotel New2004_v1.3_5.0,0.000,City,4.00000E-002,0.20000,FullInteriorAndExterior,25,6
! <Inside Convection Algorithm>, Algorithm {Simple | TARP | CeilingDiffuser | AdaptiveConvectionAlgorithm}
Inside Convection Algorithm,TARP
! <Outside Convection Algorithm>, Algorithm {SimpleCombined | TARP | MoWitt | DOE-2 | AdaptiveConvectionAlgorithm}
Outside Convection Algorithm,DOE-2
! <Sky Radiance Distribution>, Value {Anisotropic}
Sky Radiance Distribution,Anisotropic
! <Zone Air Solution Algorithm>, Value {ThirdOrderBackwardDifference | AnalyticalSolution | EulerMethod}
 Zone Air Solution Algorithm, AnalyticalSolution
! <Zone Air Carbon Dioxide Balance Simulation>, Simulation {Yes/No}, Carbon Dioxide Concentration
 Zone Air Carbon Dioxide Balance Simulation, No,N/A
! <Zone Air Generic Contaminant Balance Simulation>, Simulation {Yes/No}, Generic Contaminant Concentration
 Zone Air Generic Contaminant Balance Simulation, No,N/A
! <Zone Air Mass Flow Balance Simulation>, Enforce Mass Balance, Adjust Zone Mixing, Adjust Zone Infiltration {AddInfiltration | AdjustInfiltration | None}, Infiltration Zones {MixingSourceZonesOnly | AllZones}
 Zone Air Mass Flow Balance Simulation, No,N/A,N/A,N/A
! <HVACSystemRootFindingAlgorithm>, Value {RegulaFalsi | Bisection | BisectionThenRegulaFalsi | RegulaFalsiThenBisection}
 HVACSystemRootFindingAlgorithm, RegulaFalsi
! <Environment:Site Atmospheric Variation>,Wind Speed Profile Exponent {},Wind Speed Profile Boundary Layer Thickness {m},Air Temperature Gradient Coefficient {K/m}
Environment:Site Atmospheric Variation,0.330,460.000,6.500000E-003
! <Surface Geometry>,Starting Corner,Vertex Input Direction,Coordinate System,Daylight Reference Point Coordinate System,Rectangular (Simple) Surface Coordinate System
 Surface Geometry,UpperLeftCorner,Counterclockwise,RelativeCoordinateSystem,RelativeCoordinateSystem,RelativeToZoneOrigin
! <Surface Heat Transfer Algorithm>, Value {CTF - ConductionTransferFunction | EMPD - MoisturePenetrationDepthConductionTransferFunction | CondFD - ConductionFiniteDifference | HAMT - CombinedHeatAndMoistureFiniteElement} - Description,Inside Surface Max Temperature Limit{C}, Surface Convection Coefficient Lower Limit {W/m2-K}, Surface Convection Coefficient Upper Limit {W/m2-K}
Surface Heat Transfer Algorithm, CTF - ConductionTransferFunction,200,0.10,1000.0
! <Shading Summary>, Number of Fixed Detached Shades, Number of Building Detached Shades, Number of Attached Shades
 Shading Summary,0,2,0
! <Zone Summary>, Number of Zones, Number of Zone Surfaces, Number of SubSurfaces
 Zone Summary,22,229,30
! <Zone Information>,Zone Name,North Axis {deg},Origin X-Coordinate {m},Origin Y-Coordinate {m},Origin Z-Coordinate {m},Centroid X-Coordinate {m},Centroid Y-Coordinate {m},Centroid Z-Coordinate {m},Type,Zone Multiplier,Zone List Multiplier,Minimum X {m},Maximum X {m},Minimum Y {m},Maximum Y {m},Minimum Z {m},Maximum Z {m},Ceiling Height {m},Volume {m3},Zone Inside Convection Algorithm {Simple-Detailed-CeilingDiffuser-TrombeWall},Zone Outside Convection Algorithm {Simple-Detailed-Tarp-MoWitt-DOE-2-BLAST}, Floor Area {m2},Exterior Gross Wall Area {m2},Exterior Net Wall Area {m2},Exterior Window Area {m2}, Number of Surfaces, Number of SubSurfaces, Number of Shading SubSurfaces,  Part of Total Building Area
 Zone Information, BANQUET_FLR_6,0.0,0.00,0.00,0.00,26.37,17.68,17.68,1,1,1,10.36,42.37,12.50,22.86,16.15,19.20,3.05,1010.89,TARP,DOE-2,331.66,97.55,65.34,32.21,6,1,0,Yes
 Zone Information, BASEMENT,0.0,0.00,0.00,0.00,41.45,11.51,-1.22,1,1,1,0.00,86.56,0.00,22.86,-2.44,0.00,2.44,4826.37,TARP,DOE-2,1978.83,0.00,0.00,0.00,13,0,0,Yes
 Zone Information, CAFE_FLR_1,0.0,0.00,0.00,0.00,70.26,2.90,1.98,1,1,1,53.95,86.56,0.00,5.79,0.00,3.96,3.96,748.35,TARP,DOE-2,188.86,152.17,86.55,65.62,7,1,0,Yes
 Zone Information, CORRIDOR_FLR_3,0.0,0.00,0.00,0.00,43.28,14.33,8.53,1,4,1,4.57,81.99,5.79,22.86,7.01,10.06,3.05,1186.91,TARP,DOE-2,389.40,48.31,32.37,15.94,20,4,0,Yes
 Zone Information, CORRIDOR_FLR_6,0.0,0.00,0.00,0.00,41.51,13.35,17.68,1,1,1,4.57,81.99,5.79,22.86,16.15,19.20,3.05,1256.16,TARP,DOE-2,412.12,85.47,57.25,28.22,15,3,0,Yes
 Zone Information, DINING_FLR_6,0.0,0.00,0.00,0.00,63.55,17.68,17.68,1,1,1,47.55,79.55,12.50,22.86,16.15,19.20,3.05,1010.89,TARP,DOE-2,331.66,97.55,65.34,32.21,6,1,0,Yes
 Zone Information, KITCHEN_FLR_6,0.0,0.00,0.00,0.00,82.99,14.11,17.68,1,1,1,79.55,86.56,5.79,22.86,16.15,19.20,3.05,314.87,TARP,DOE-2,103.30,87.33,60.95,26.38,8,3,0,Yes
 Zone Information, LAUNDRY_FLR_1,0.0,0.00,0.00,0.00,84.28,14.33,1.98,1,1,1,81.99,86.56,5.79,22.86,0.00,3.96,3.96,309.22,TARP,DOE-2,78.04,85.75,85.75,0.00,6,0,0,Yes
 Zone Information, LOBBY_FLR_1,0.0,0.00,0.00,0.00,38.29,12.45,1.98,1,1,1,0.00,81.99,0.00,22.86,0.00,3.96,3.96,5183.56,TARP,DOE-2,1308.19,434.79,349.55,85.24,18,1,0,Yes
 Zone Information, MECH_FLR_1,0.0,0.00,0.00,0.00,61.87,17.68,1.98,1,1,1,53.95,69.80,12.50,22.86,0.00,3.96,3.96,650.80,TARP,DOE-2,164.24,62.80,62.80,0.00,6,0,0,Yes
 Zone Information, RETAIL_1_FLR_1,0.0,0.00,0.00,0.00,5.79,2.90,1.98,1,1,1,0.00,11.58,0.00,5.79,0.00,3.96,3.96,265.76,TARP,DOE-2,67.07,68.84,45.54,23.30,6,1,0,Yes
 Zone Information, RETAIL_2_FLR_1,0.0,0.00,0.00,0.00,5.79,9.14,1.98,1,1,1,0.00,11.58,5.79,12.50,0.00,3.96,3.96,307.76,TARP,DOE-2,77.67,26.57,26.57,0.00,6,0,0,Yes
 Zone Information, ROOM_1_FLR_3,0.0,0.00,0.00,0.00,2.29,10.06,8.53,1,4,1,0.00,4.57,5.79,14.33,7.01,10.06,3.05,118.94,TARP,DOE-2,39.02,39.95,26.77,13.18,6,2,0,Yes
 Zone Information, ROOM_1_FLR_6,0.0,0.00,0.00,0.00,2.29,10.06,17.68,1,1,1,0.00,4.57,5.79,14.33,16.15,19.20,3.05,118.94,TARP,DOE-2,39.02,39.95,26.76,13.19,6,2,0,Yes
 Zone Information, ROOM_2_FLR_3,0.0,0.00,0.00,0.00,2.29,18.59,8.53,1,4,1,0.00,4.57,14.33,22.86,7.01,10.06,3.05,118.93,TARP,DOE-2,39.02,39.95,26.77,13.18,6,2,0,Yes
 Zone Information, ROOM_2_FLR_6,0.0,0.00,0.00,0.00,2.29,18.59,17.68,1,1,1,0.00,4.57,14.33,22.86,16.15,19.20,3.05,118.93,TARP,DOE-2,39.02,39.95,26.76,13.19,6,2,0,Yes
 Zone Information, ROOM_3_MULT19_FLR_3,0.0,0.00,0.00,0.00,8.53,9.14,8.53,1,76,1,6.71,10.36,5.79,12.50,7.01,10.06,3.05,74.75,TARP,DOE-2,24.52,11.15,7.47,3.68,6,1,0,Yes
 Zone Information, ROOM_3_MULT9_FLR_6,0.0,0.00,0.00,0.00,7.93,7.62,17.68,1,9,1,4.57,11.28,5.79,9.45,16.15,19.20,3.05,74.77,TARP,DOE-2,24.53,20.44,13.69,6.75,6,1,0,Yes
 Zone Information, ROOM_4_MULT19_FLR_3,0.0,0.00,0.00,0.00,12.19,19.51,8.53,1,76,1,10.36,14.02,16.15,22.86,7.01,10.06,3.05,74.77,TARP,DOE-2,24.53,11.15,7.47,3.68,6,1,0,Yes
 Zone Information, ROOM_5_FLR_3,0.0,0.00,0.00,0.00,84.28,10.06,8.53,1,4,1,81.99,86.56,5.79,14.33,7.01,10.06,3.05,118.94,TARP,DOE-2,39.02,39.95,26.77,13.18,6,2,0,Yes
 Zone Information, ROOM_6_FLR_3,0.0,0.00,0.00,0.00,84.28,18.59,8.53,1,4,1,81.99,86.56,14.33,22.86,7.01,10.06,3.05,118.93,TARP,DOE-2,39.02,39.95,26.77,13.18,6,2,0,Yes
 Zone Information, STORAGE_FLR_1,0.0,0.00,0.00,0.00,74.37,17.68,1.98,1,1,1,69.80,78.94,12.50,22.86,0.00,3.96,3.96,375.47,TARP,DOE-2,94.76,36.23,36.23,0.00,6,0,0,Yes
! <Zone Internal Gains Nominal>,Zone Name, Floor Area {m2},# Occupants,Area per Occupant {m2/person},Occupant per Area {person/m2},Interior Lighting {W/m2},Electric Load {W/m2},Gas Load {W/m2},Other Load {W/m2},Hot Water Eq {W/m2},Steam Equipment {W/m2},Sum Loads per Area {W/m2},Outdoor Controlled Baseboard Heat
 Zone Internal Gains Nominal, BANQUET_FLR_6,331.66,238.6,1.390,0.719,13.990,67.817,0.000,0.000,0.000,0.000,81.807,No
 Zone Internal Gains Nominal, BASEMENT,1978.83,53.3,37.160,2.691E-002,10.760,5.380,0.000,0.000,0.000,0.000,16.140,No
 Zone Internal Gains Nominal, CAFE_FLR_1,188.86,135.9,1.390,0.719,13.990,5.380,0.000,0.000,0.000,0.000,19.370,No
 Zone Internal Gains Nominal, CORRIDOR_FLR_3,389.40,4.2,92.900,1.076E-002,5.380,0.000,0.000,0.000,0.000,0.000,5.380,No
 Zone Internal Gains Nominal, CORRIDOR_FLR_6,412.12,4.4,92.900,1.076E-002,5.380,0.000,0.000,0.000,0.000,0.000,5.380,No
 Zone Internal Gains Nominal, DINING_FLR_6,331.66,238.6,1.390,0.719,13.990,67.817,0.000,0.000,0.000,0.000,81.807,No
 Zone Internal Gains Nominal, KITCHEN_FLR_6,103.30,5.6,18.580,5.382E-002,12.910,514.779,1612.767,0.000,0.000,0.000,2140.456,No
 Zone Internal Gains Nominal, LAUNDRY_FLR_1,78.04,3.4,23.230,4.305E-002,6.460,62.789,535.857,0.000,0.000,0.000,605.106,No
 Zone Internal Gains Nominal, LOBBY_FLR_1,1308.19,422.0,3.100,0.323,11.840,8.070,0.000,0.000,0.000,0.000,19.910,No
 Zone Internal Gains Nominal, MECH_FLR_1,164.24,0.0,N/A,0.000,16.140,5.380,0.000,0.000,0.000,0.000,21.520,No
 Zone Internal Gains Nominal, RETAIL_1_FLR_1,67.07,10.8,6.190,0.162,16.140,10.760,0.000,0.000,0.000,0.000,26.900,No
 Zone Internal Gains Nominal, RETAIL_2_FLR_1,77.67,12.5,6.190,0.162,16.140,10.760,0.000,0.000,0.000,0.000,26.900,No
 Zone Internal Gains Nominal, ROOM_1_FLR_3,39.02,1.5,26.010,3.845E-002,11.840,14.300,0.000,0.000,0.000,0.000,26.140,No
 Zone Internal Gains Nominal, ROOM_1_FLR_6,39.02,1.5,26.010,3.845E-002,11.840,14.300,0.000,0.000,0.000,0.000,26.140,No
 Zone Internal Gains Nominal, ROOM_2_FLR_3,39.02,1.5,26.010,3.845E-002,11.840,14.300,0.000,0.000,0.000,0.000,26.140,No
 Zone Internal Gains Nominal, ROOM_2_FLR_6,39.02,1.5,26.010,3.845E-002,11.840,14.300,0.000,0.000,0.000,0.000,26.140,No
 Zone Internal Gains Nominal, ROOM_3_MULT19_FLR_3,24.52,1.5,16.350,6.116E-002,11.840,14.300,0.000,0.000,0.000,0.000,26.140,No
 Zone Internal Gains Nominal, ROOM_3_MULT9_FLR_6,24.53,1.5,16.350,6.116E-002,11.840,14.300,0.000,0.000,0.000,0.000,26.140,No
 Zone Internal Gains Nominal, ROOM_4_MULT19_FLR_3,24.53,1.5,16.350,6.116E-002,11.840,14.300,0.000,0.000,0.000,0.000,26.140,No
 Zone Internal Gains Nominal, ROOM_5_FLR_3,39.02,1.5,26.010,3.845E-002,11.840,14.300,0.000,0.000,0.000,0.000,26.140,No
 Zone Internal Gains Nominal, ROOM_6_FLR_3,39.02,1.5,26.010,3.845E-002,11.840,14.300,0.000,0.000,0.000,0.000,26.140,No
 Zone Internal Gains Nominal, STORAGE_FLR_1,94.76,2.0,46.450,2.153E-002,9.680,2.690,0.000,0.000,0.000,0.000,12.370,No
! <People Internal Gains Nominal>,Name,Schedule Name,Zone Name,Zone Floor Area {m2},# Zone Occupants,Number of People {},People/Floor Area {person/m2},Floor Area per person {m2/person},Fraction Radiant,Fraction Convected,Sensible Fraction Calculation,Activity level,ASHRAE 55 Warnings,Carbon Dioxide Generation Rate,Nominal Minimum Number of People,Nominal Maximum Number of People,MRT Calculation Type,Work Efficiency, Clothing Insulation Calculation Method,Clothing Insulation Calculation Method Schedule,Clothing,Air Velocity,Fanger Calculation,Pierce Calculation,KSU Calculation
 People Internal Gains Nominal, BANQUET_FLR_6 PEOPLE,COMMON_OCC_SCH,BANQUET_FLR_6,331.66,238.6,238.6,0.719,1.390,0.300,0.700,AutoCalculate,ACTIVITY_SCH,No,3.8200E-008,0,239,Zone Averaged,WORK_EFF_SCH,Clothing Insulation Schedule,N/A,CLOTHING_SCH,AIR_VELO_SCH,Yes,No,No
 People Internal Gains Nominal, BASEMENT PEOPLE,COMMON_OCC_SCH,BASEMENT,1978.83,53.3,53.3,2.691E-002,37.160,0.300,0.700,AutoCalculate,ACTIVITY_SCH,No,3.8200E-008,0,53,Zone Averaged,WORK_EFF_SCH,Clothing Insulation Schedule,N/A,CLOTHING_SCH,AIR_VELO_SCH,Yes,No,No
 People Internal Gains Nominal, CAFE_FLR_1 PEOPLE,COMMON_OCC_SCH,CAFE_FLR_1,188.86,135.9,135.9,0.719,1.390,0.300,0.700,AutoCalculate,ACTIVITY_SCH,No,3.8200E-008,0,136,Zone Averaged,WORK_EFF_SCH,Clothing Insulation Schedule,N/A,CLOTHING_SCH,AIR_VELO_SCH,Yes,No,No
 People Internal Gains Nominal, CORRIDOR_FLR_3 PEOPLE,COMMON_OCC_SCH,CORRIDOR_FLR_3,389.40,4.2,4.2,1.076E-002,92.900,0.300,0.700,AutoCalculate,ACTIVITY_SCH,No,3.8200E-008,0,4,Zone Averaged,WORK_EFF_SCH,Clothing Insulation Schedule,N/A,CLOTHING_SCH,AIR_VELO_SCH,Yes,No,No
 People Internal Gains Nominal, CORRIDOR_FLR_6 PEOPLE,COMMON_OCC_SCH,CORRIDOR_FLR_6,412.12,4.4,4.4,1.076E-002,92.900,0.300,0.700,AutoCalculate,ACTIVITY_SCH,No,3.8200E-008,0,4,Zone Averaged,WORK_EFF_SCH,Clothing Insulation Schedule,N/A,CLOTHING_SCH,AIR_VELO_SCH,Yes,No,No
 People Internal Gains Nominal, DINING_FLR_6 PEOPLE,COMMON_OCC_SCH,DINING_FLR_6,331.66,238.6,238.6,0.719,1.390,0.300,0.700,AutoCalculate,ACTIVITY_SCH,No,3.8200E-008,0,239,Zone Averaged,WORK_EFF_SCH,Clothing Insulation Schedule,N/A,CLOTHING_SCH,AIR_VELO_SCH,Yes,No,No
 People Internal Gains Nominal, KITCHEN_FLR_6 PEOPLE,COMMON_OCC_SCH,KITCHEN_FLR_6,103.30,5.6,5.6,5.382E-002,18.580,0.300,0.700,AutoCalculate,ACTIVITY_SCH,No,3.8200E-008,0,6,Zone Averaged,WORK_EFF_SCH,Clothing Insulation Schedule,N/A,CLOTHING_SCH,AIR_VELO_SCH,Yes,No,No
 People Internal Gains Nominal, LAUNDRY_FLR_1 PEOPLE,COMMON_OCC_SCH,LAUNDRY_FLR_1,78.04,3.4,3.4,4.305E-002,23.230,0.300,0.700,AutoCalculate,ACTIVITY_SCH,No,3.8200E-008,0,3,Zone Averaged,WORK_EFF_SCH,Clothing Insulation Schedule,N/A,CLOTHING_SCH,AIR_VELO_SCH,Yes,No,No
 People Internal Gains Nominal, LOBBY_FLR_1 PEOPLE,COMMON_OCC_SCH,LOBBY_FLR_1,1308.19,422.0,422.0,0.323,3.100,0.300,0.700,AutoCalculate,ACTIVITY_SCH,No,3.8200E-008,0,422,Zone Averaged,WORK_EFF_SCH,Clothing Insulation Schedule,N/A,CLOTHING_SCH,AIR_VELO_SCH,Yes,No,No
 People Internal Gains Nominal, RETAIL_1_FLR_1 PEOPLE,COMMON_OCC_SCH,RETAIL_1_FLR_1,67.07,10.8,10.8,0.162,6.190,0.300,0.700,AutoCalculate,ACTIVITY_SCH,No,3.8200E-008,0,11,Zone Averaged,WORK_EFF_SCH,Clothing Insulation Schedule,N/A,CLOTHING_SCH,AIR_VELO_SCH,Yes,No,No
 People Internal Gains Nominal, RETAIL_2_FLR_1 PEOPLE,COMMON_OCC_SCH,RETAIL_2_FLR_1,77.67,12.5,12.5,0.162,6.190,0.300,0.700,AutoCalculate,ACTIVITY_SCH,No,3.8200E-008,0,13,Zone Averaged,WORK_EFF_SCH,Clothing Insulation Schedule,N/A,CLOTHING_SCH,AIR_VELO_SCH,Yes,No,No
 People Internal Gains Nominal, ROOM_1_FLR_3 PEOPLE,GUESTROOM_OCC_SCH,ROOM_1_FLR_3,39.02,1.5,1.5,3.845E-002,26.010,0.300,0.700,AutoCalculate,ACTIVITY_SCH,No,3.8200E-008,0,2,Zone Averaged,WORK_EFF_SCH,Clothing Insulation Schedule,N/A,CLOTHING_SCH,AIR_VELO_SCH,Yes,No,No
 People Internal Gains Nominal, ROOM_1_FLR_6 PEOPLE,GUESTROOM_OCC_SCH,ROOM_1_FLR_6,39.02,1.5,1.5,3.845E-002,26.010,0.300,0.700,AutoCalculate,ACTIVITY_SCH,No,3.8200E-008,0,2,Zone Averaged,WORK_EFF_SCH,Clothing Insulation Schedule,N/A,CLOTHING_SCH,AIR_VELO_SCH,Yes,No,No
 People Internal Gains Nominal, ROOM_2_FLR_3 PEOPLE,GUESTROOM_OCC_SCH,ROOM_2_FLR_3,39.02,1.5,1.5,3.845E-002,26.010,0.300,0.700,AutoCalculate,ACTIVITY_SCH,No,3.8200E-008,0,2,Zone Averaged,WORK_EFF_SCH,Clothing Insulation Schedule,N/A,CLOTHING_SCH,AIR_VELO_SCH,Yes,No,No
 People Internal Gains Nominal, ROOM_2_FLR_6 PEOPLE,GUESTROOM_OCC_SCH,ROOM_2_FLR_6,39.02,1.5,1.5,3.845E-002,26.010,0.300,0.700,AutoCalculate,ACTIVITY_SCH,No,3.8200E-008,0,2,Zone Averaged,WORK_EFF_SCH,Clothing Insulation Schedule,N/A,CLOTHING_SCH,AIR_VELO_SCH,Yes,No,No
 People Internal Gains Nominal, ROOM_3_MULT19_FLR_3 PEOPLE,GUESTROOM_OCC_SCH,ROOM_3_MULT19_FLR_3,24.52,1.5,1.5,6.116E-002,16.350,0.300,0.700,AutoCalculate,ACTIVITY_SCH,No,3.8200E-008,0,1,Zone Averaged,WORK_EFF_SCH,Clothing Insulation Schedule,N/A,CLOTHING_SCH,AIR_VELO_SCH,Yes,No,No
 People Internal Gains Nominal, ROOM_3_MULT9_FLR_6 PEOPLE,GUESTROOM_OCC_SCH,ROOM_3_MULT9_FLR_6,24.53,1.5,1.5,6.116E-002,16.350,0.300,0.700,AutoCalculate,ACTIVITY_SCH,No,3.8200E-008,0,2,Zone Averaged,WORK_EFF_SCH,Clothing Insulation Schedule,N/A,CLOTHING_SCH,AIR_VELO_SCH,Yes,No,No
 People Internal Gains Nominal, ROOM_4_MULT19_FLR_3 PEOPLE,GUESTROOM_OCC_SCH,ROOM_4_MULT19_FLR_3,24.53,1.5,1.5,6.116E-002,16.350,0.300,0.700,AutoCalculate,ACTIVITY_SCH,No,3.8200E-008,0,2,Zone Averaged,WORK_EFF_SCH,Clothing Insulation Schedule,N/A,CLOTHING_SCH,AIR_VELO_SCH,Yes,No,No
 People Internal Gains Nominal, ROOM_5_FLR_3 PEOPLE,GUESTROOM_OCC_SCH,ROOM_5_FLR_3,39.02,1.5,1.5,3.845E-002,26.010,0.300,0.700,AutoCalculate,ACTIVITY_SCH,No,3.8200E-008,0,2,Zone Averaged,WORK_EFF_SCH,Clothing Insulation Schedule,N/A,CLOTHING_SCH,AIR_VELO_SCH,Yes,No,No
 People Internal Gains Nominal, ROOM_6_FLR_3 PEOPLE,GUESTROOM_OCC_SCH,ROOM_6_FLR_3,39.02,1.5,1.5,3.845E-002,26.010,0.300,0.700,AutoCalculate,ACTIVITY_SCH,No,3.8200E-008,0,2,Zone Averaged,WORK_EFF_SCH,Clothing Insulation Schedule,N/A,CLOTHING_SCH,AIR_VELO_SCH,Yes,No,No
 People Internal Gains Nominal, STORAGE_FLR_1 PEOPLE,COMMON_OCC_SCH,STORAGE_FLR_1,94.76,2.0,2.0,2.153E-002,46.450,0.300,0.700,AutoCalculate,ACTIVITY_SCH,No,3.8200E-008,0,2,Zone Averaged,WORK_EFF_SCH,Clothing Insulation Schedule,N/A,CLOTHING_SCH,AIR_VELO_SCH,Yes,No,No
! <Lights Internal Gains Nominal>,Name,Schedule Name,Zone Name,Zone Floor Area {m2},# Zone Occupants,Lighting Level {W},Lights/Floor Area {W/m2},Lights per person {W/person},Fraction Return Air,Fraction Radiant,Fraction Short Wave,Fraction Convected,Fraction Replaceable,End-Use Category,Nominal Minimum Lighting Level {W},Nominal Maximum Lighting Level {W}
 Lights Internal Gains Nominal, BANQUET_FLR_6_LIGHTS,BLDG_LIGHT_SCH,BANQUET_FLR_6,331.66,238.6,4639.888,13.990,19.446,0.000,0.700,0.200,0.100,1.000,General,0.000,4639.888
 Lights Internal Gains Nominal, BASEMENT_LIGHTS,BLDG_LIGHT_SCH,BASEMENT,1978.83,53.3,21292.213,10.760,399.842,0.000,0.700,0.200,0.100,1.000,General,0.000,21292.213
 Lights Internal Gains Nominal, CAFE_FLR_1_LIGHTS,BLDG_LIGHT_SCH,CAFE_FLR_1,188.86,135.9,2642.178,13.990,19.446,0.000,0.700,0.200,0.100,1.000,General,0.000,2642.178
 Lights Internal Gains Nominal, CORRIDOR_FLR_3_LIGHTS,BLDG_LIGHT_SCH,CORRIDOR_FLR_3,389.40,4.2,2094.997,5.380,499.802,0.000,0.700,0.200,0.100,1.000,General,0.000,2094.997
 Lights Internal Gains Nominal, CORRIDOR_FLR_6_LIGHTS,BLDG_LIGHT_SCH,CORRIDOR_FLR_6,412.12,4.4,2217.231,5.380,499.802,0.000,0.700,0.200,0.100,1.000,General,0.000,2217.231
 Lights Internal Gains Nominal, DINING_FLR_6_LIGHTS,BLDG_LIGHT_SCH,DINING_FLR_6,331.66,238.6,4639.888,13.990,19.446,0.000,0.700,0.200,0.100,1.000,General,0.000,4639.888
 Lights Internal Gains Nominal, KITCHEN_FLR_6_LIGHTS,BLDG_LIGHT_SCH,KITCHEN_FLR_6,103.30,5.6,1333.661,12.910,239.867,0.000,0.700,0.200,0.100,1.000,General,0.000,1333.661
 Lights Internal Gains Nominal, LAUNDRY_FLR_1_LIGHTS,BLDG_LIGHT_SCH,LAUNDRY_FLR_1,78.04,3.4,504.135,6.460,150.066,0.000,0.700,0.200,0.100,1.000,General,0.000,504.135
 Lights Internal Gains Nominal, LOBBY_FLR_1_LIGHTS,BLDG_LIGHT_SCH,LOBBY_FLR_1,1308.19,422.0,15488.924,11.840,36.704,0.000,0.700,0.200,0.100,1.000,General,0.000,15488.924
 Lights Internal Gains Nominal, MECH_FLR_1_LIGHTS,BLDG_LIGHT_SCH,MECH_FLR_1,164.24,0.0,2650.885,16.140,N/A,0.000,0.700,0.200,0.100,1.000,General,0.000,2650.885
 Lights Internal Gains Nominal, RETAIL_1_FLR_1_LIGHTS,BLDG_LIGHT_SCH,RETAIL_1_FLR_1,67.07,10.8,1082.532,16.140,99.907,0.000,0.700,0.200,0.100,1.000,General,0.000,1082.532
 Lights Internal Gains Nominal, RETAIL_2_FLR_1_LIGHTS,BLDG_LIGHT_SCH,RETAIL_2_FLR_1,77.67,12.5,1253.576,16.140,99.907,0.000,0.700,0.200,0.100,1.000,General,0.000,1253.576
 Lights Internal Gains Nominal, ROOM_1_FLR_3_LIGHTS,GUESTROOM_LTG_SCH_BASE,ROOM_1_FLR_3,39.02,1.5,462.021,11.840,307.958,0.000,0.700,0.200,0.100,1.000,General,0.000,462.021
 Lights Internal Gains Nominal, ROOM_1_FLR_6_LIGHTS,GUESTROOM_LTG_SCH_BASE,ROOM_1_FLR_6,39.02,1.5,462.021,11.840,307.958,0.000,0.700,0.200,0.100,1.000,General,0.000,462.021
 Lights Internal Gains Nominal, ROOM_2_FLR_3_LIGHTS,GUESTROOM_LTG_SCH_BASE,ROOM_2_FLR_3,39.02,1.5,461.967,11.840,307.958,0.000,0.700,0.200,0.100,1.000,General,0.000,461.967
 Lights Internal Gains Nominal, ROOM_2_FLR_6_LIGHTS,GUESTROOM_LTG_SCH_BASE,ROOM_2_FLR_6,39.02,1.5,461.967,11.840,307.958,0.000,0.700,0.200,0.100,1.000,General,0.000,461.967
 Lights Internal Gains Nominal, ROOM_3_MULT19_FLR_3_LIGHTS,GUESTROOM_LTG_SCH_BASE,ROOM_3_MULT19_FLR_3,24.52,1.5,290.362,11.840,193.584,0.000,0.700,0.200,0.100,1.000,General,0.000,290.362
 Lights Internal Gains Nominal, ROOM_3_MULT9_FLR_6_LIGHTS,GUESTROOM_LTG_SCH_BASE,ROOM_3_MULT9_FLR_6,24.53,1.5,290.442,11.840,193.584,0.000,0.700,0.200,0.100,1.000,General,0.000,290.442
 Lights Internal Gains Nominal, ROOM_4_MULT19_FLR_3_LIGHTS,GUESTROOM_LTG_SCH_BASE,ROOM_4_MULT19_FLR_3,24.53,1.5,290.442,11.840,193.584,0.000,0.700,0.200,0.100,1.000,General,0.000,290.442
 Lights Internal Gains Nominal, ROOM_5_FLR_3_LIGHTS,GUESTROOM_LTG_SCH_BASE,ROOM_5_FLR_3,39.02,1.5,462.021,11.840,307.958,0.000,0.700,0.200,0.100,1.000,General,0.000,462.021
 Lights Internal Gains Nominal, ROOM_6_FLR_3_LIGHTS,GUESTROOM_LTG_SCH_BASE,ROOM_6_FLR_3,39.02,1.5,461.967,11.840,307.958,0.000,0.700,0.200,0.100,1.000,General,0.000,461.967
 Lights Internal Gains Nominal, STORAGE_FLR_1_LIGHTS,BLDG_LIGHT_SCH,STORAGE_FLR_1,94.76,2.0,917.270,9.680,449.636,0.000,0.700,0.200,0.100,1.000,General,0.000,917.270
! <ElectricEquipment Internal Gains Nominal>,Name,Schedule Name,Zone Name,Zone Floor Area {m2},# Zone Occupants,Equipment Level {W},Equipment/Floor Area {W/m2},Equipment per person {W/person},Fraction Latent,Fraction Radiant,Fraction Lost,Fraction Convected,End-Use SubCategory,Nominal Minimum Equipment Level {W},Nominal Maximum Equipment Level {W}
 ElectricEquipment Internal Gains Nominal, BANQUET_FLR_6_MISCPLUG_EQUIP,KITCHEN_ELEC_EQUIP_SCH,BANQUET_FLR_6,331.66,238.6,22492.000,67.817,94.266,0.000,0.500,0.000,0.500,MiscPlug,0.000,7872.200
 ElectricEquipment Internal Gains Nominal, BASEMENT_MISCPLUG_EQUIP,BLDG_EQUIP_SCH,BASEMENT,1978.83,53.3,10646.106,5.380,199.921,0.000,0.500,0.000,0.500,MiscPlug,0.000,10646.106
 ElectricEquipment Internal Gains Nominal, CAFE_FLR_1_MISCPLUG_EQUIP,BLDG_EQUIP_SCH,CAFE_FLR_1,188.86,135.9,1016.077,5.380,7.478,0.000,0.500,0.000,0.500,MiscPlug,0.000,1016.077
 ElectricEquipment Internal Gains Nominal, DINING_FLR_6_MISCPLUG_EQUIP,KITCHEN_ELEC_EQUIP_SCH,DINING_FLR_6,331.66,238.6,22492.000,67.817,94.266,0.000,0.500,0.000,0.500,MiscPlug,0.000,7872.200
 ElectricEquipment Internal Gains Nominal, KITCHEN_FLR_6_EXHFAN_EQUIP,KITCHEN_EXHAUST_SCH,KITCHEN_FLR_6,103.30,5.6,698.000,6.757,125.540,0.000,0.000,1.000,0.000,KitchenExhFan,0.000,698.000
 ElectricEquipment Internal Gains Nominal, KITCHEN_FLR_6_MISCELEC_EQUIP,KITCHEN_ELEC_EQUIP_SCH,KITCHEN_FLR_6,103.30,5.6,52481.000,508.023,9439.029,0.200,0.500,0.100,0.200,MiscElec,0.000,18368.350
 ElectricEquipment Internal Gains Nominal, LAUNDRY_FLR_1_MISCPLUG_EQUIP,LAUNDRYROOM_EQP_ELEC_SCH,LAUNDRY_FLR_1,78.04,3.4,4813.000,61.674,1432.685,0.000,0.500,0.000,0.500,MiscPlug,0.000,4813.000
 ElectricEquipment Internal Gains Nominal, LAUNDRY_FLR_1_EXHFAN_EQUIP,ALWAYS_ON,LAUNDRY_FLR_1,78.04,3.4,87.000,1.115,25.897,0.000,0.000,1.000,0.000,LaundryExhFan,87.000,87.000
 ElectricEquipment Internal Gains Nominal, LOBBY_FLR_1_MISCPLUG_EQUIP,BLDG_EQUIP_SCH,LOBBY_FLR_1,1308.19,422.0,10557.062,8.070,25.017,0.000,0.500,0.000,0.500,MiscPlug,0.000,10557.062
 ElectricEquipment Internal Gains Nominal, MECH_FLR_1_MISCPLUG_EQUIP,BLDG_EQUIP_SCH,MECH_FLR_1,164.24,0.0,883.628,5.380,N/A,0.000,0.500,0.000,0.500,MiscPlug,0.000,883.628
 ElectricEquipment Internal Gains Nominal, RETAIL_1_FLR_1_MISCPLUG_EQUIP,BLDG_EQUIP_SCH,RETAIL_1_FLR_1,67.07,10.8,721.688,10.760,66.604,0.000,0.500,0.000,0.500,MiscPlug,0.000,721.688
 ElectricEquipment Internal Gains Nominal, RETAIL_2_FLR_1_MISCPLUG_EQUIP,BLDG_EQUIP_SCH,RETAIL_2_FLR_1,77.67,12.5,835.717,10.760,66.604,0.000,0.500,0.000,0.500,MiscPlug,0.000,835.717
 ElectricEquipment Internal Gains Nominal, ROOM_1_FLR_3_PLUGMISC_EQUIP,GUESTROOM_EQP_SCH,ROOM_1_FLR_3,39.02,1.5,558.015,14.300,371.943,0.000,0.500,0.000,0.500,General,0.000,558.015
 ElectricEquipment Internal Gains Nominal, ROOM_1_FLR_6_PLUGMISC_EQUIP,GUESTROOM_EQP_SCH,ROOM_1_FLR_6,39.02,1.5,558.015,14.300,371.943,0.000,0.500,0.000,0.500,General,0.000,558.015
 ElectricEquipment Internal Gains Nominal, ROOM_2_FLR_3_PLUGMISC_EQUIP,GUESTROOM_EQP_SCH,ROOM_2_FLR_3,39.02,1.5,557.950,14.300,371.943,0.000,0.500,0.000,0.500,General,0.000,557.950
 ElectricEquipment Internal Gains Nominal, ROOM_2_FLR_6_PLUGMISC_EQUIP,GUESTROOM_EQP_SCH,ROOM_2_FLR_6,39.02,1.5,557.950,14.300,371.943,0.000,0.500,0.000,0.500,General,0.000,557.950
 ElectricEquipment Internal Gains Nominal, ROOM_3_MULT19_FLR_3_PLUGMISC_EQUIP,GUESTROOM_EQP_SCH,ROOM_3_MULT19_FLR_3,24.52,1.5,350.691,14.300,233.805,0.000,0.500,0.000,0.500,General,0.000,350.691
 ElectricEquipment Internal Gains Nominal, ROOM_3_MULT9_FLR_6_PLUGMISC_EQUIP,GUESTROOM_EQP_SCH,ROOM_3_MULT9_FLR_6,24.53,1.5,350.787,14.300,233.805,0.000,0.500,0.000,0.500,General,0.000,350.787
 ElectricEquipment Internal Gains Nominal, ROOM_4_MULT19_FLR_3_PLUGMISC_EQUIP,GUESTROOM_EQP_SCH,ROOM_4_MULT19_FLR_3,24.53,1.5,350.787,14.300,233.805,0.000,0.500,0.000,0.500,General,0.000,350.787
 ElectricEquipment Internal Gains Nominal, ROOM_5_FLR_3_PLUGMISC_EQUIP,GUESTROOM_EQP_SCH,ROOM_5_FLR_3,39.02,1.5,558.015,14.300,371.943,0.000,0.500,0.000,0.500,General,0.000,558.015
 ElectricEquipment Internal Gains Nominal, ROOM_6_FLR_3_PLUGMISC_EQUIP,GUESTROOM_EQP_SCH,ROOM_6_FLR_3,39.02,1.5,557.950,14.300,371.943,0.000,0.500,0.000,0.500,General,0.000,557.950
 ElectricEquipment Internal Gains Nominal, STORAGE_FLR_1_MISCPLUG_EQUIP,BLDG_EQUIP_SCH,STORAGE_FLR_1,94.76,2.0,254.902,2.690,124.951,0.000,0.500,0.000,0.500,MiscPlug,0.000,254.902
! <GasEquipment Internal Gains Nominal>,Name,Schedule Name,Zone Name,Zone Floor Area {m2},# Zone Occupants,Equipment Level {W},Equipment/Floor Area {W/m2},Equipment per person {W/person},Fraction Latent,Fraction Radiant,Fraction Lost,Fraction Convected,End-Use SubCategory,Nominal Minimum Equipment Level {W},Nominal Maximum Equipment Level {W}
 GasEquipment Internal Gains Nominal, KITCHEN_FLR_6_MISCGAS_EQUIP,KITCHEN_GAS_EQUIP_SCH,KITCHEN_FLR_6,103.30,5.6,166606.000,1612.767,29965.108,0.100,0.200,0.700,0.000,MiscGas,0.000,49981.800
 GasEquipment Internal Gains Nominal, LAUNDRY_FLR_1_MISCGAS_EQUIP,LAUNDRYROOM_EQP_GAS_SCH,LAUNDRY_FLR_1,78.04,3.4,41818.000,535.857,12447.960,0.000,0.500,0.000,0.500,MiscGas,0.000,41818.000
! <Shadowing/Sun Position Calculations Annual Simulations>, Calculation Method, Value {days}, Allowable Number Figures in Shadow Overlap {}, Polygon Clipping Algorithm, Sky Diffuse Modeling Algorithm
Shadowing/Sun Position Calculations Annual Simulations,AverageOverDaysInFrequency,7,15000,SutherlandHodgman,SimpleSkyDiffuseModeling,InternalCalculation,No
! <#Refrigeration Compressor Racks>,Number of Refrigeration Compressor Racks
! <Refrigeration Compressor Rack>,Compressor Rack Name, # Refrigerated Cases Connected,# WalkIn Coolers Connected, Heat Rejection Location, Condenser Type, COP
!  <Refrigeration Case>,Refrigeration Case Number, Refrigeration Case Name,Zone Name,Zone Node #,Zone Node Name,Capacity (W/m),LHR,Temperature (C),Length (m),Fan (W/m),Installed Lighting (W/m),Anti-Sweat (W/m),Defrost (W/m)
#Refrigeration Compressor Racks, 2
 Refrigeration Compressor Rack,RACK1,1,0,Outdoors,Air-Cooled,1.500
   Refrigeration Case,1,KITCHEN_FLR_6_CASE:1_WALKINFREEZER,KITCHEN_FLR_6,216,KITCHEN_FLR_6 AIR NODE,367.0,0.10,-23.0,7.3,34.0,16.4,0.0,273.0
 Refrigeration Compressor Rack,RACK2,1,0,Outdoors,Air-Cooled,3.000
   Refrigeration Case,2,KITCHEN_FLR_6_CASE:2_SELFCONTAINEDDISPLAYCASE,KITCHEN_FLR_6,216,KITCHEN_FLR_6 AIR NODE,734.0,8.00E-002,2.0,3.7,55.0,33.0,0.0,0.0
! <Water Heater Information>,Type,Name,Volume {m3},Maximum Capacity {W},Standard Rated Recovery Efficiency, Standard Rated Energy Factor
! <ZoneInfiltration Airflow Stats Nominal>,Name,Schedule Name,Zone Name, Zone Floor Area {m2}, # Zone Occupants,Design Volume Flow Rate {m3/s},Volume Flow Rate/Floor Area {m3/s/m2},Volume Flow Rate/Exterior Surface Area {m3/s/m2},ACH - Air Changes per Hour,Equation A - Constant Term Coefficient {},Equation B - Temperature Term Coefficient {1/C},Equation C - Velocity Term Coefficient {s/m}, Equation D - Velocity Squared Term Coefficient {s2/m2}
 ZoneInfiltration Airflow Stats Nominal, BANQUET_FLR_6_INFILTRATION,INFIL_QUARTER_ON_SCH,BANQUET_FLR_6,331.66,238.6,2.946E-002,8.883E-005,6.864E-005,0.105,1.000,0.000,0.000,0.000
 ZoneInfiltration Airflow Stats Nominal, CAFE_FLR_1_INFILTRATION,INFIL_QUARTER_ON_SCH,CAFE_FLR_1,188.86,135.9,4.596E-002,2.433E-004,1.348E-004,0.221,1.000,0.000,0.000,0.000
 ZoneInfiltration Airflow Stats Nominal, CORRIDOR_FLR_3_INFILTRATION,INFIL_QUARTER_ON_SCH,CORRIDOR_FLR_3,389.40,4.2,1.459E-002,3.746E-005,3.020E-004,4.425E-002,1.000,0.000,0.000,0.000
 ZoneInfiltration Airflow Stats Nominal, CORRIDOR_FLR_6_INFILTRATION,INFIL_QUARTER_ON_SCH,CORRIDOR_FLR_6,412.12,4.4,2.581E-002,6.263E-005,5.187E-005,7.398E-002,1.000,0.000,0.000,0.000
 ZoneInfiltration Airflow Stats Nominal, DINING_FLR_6_INFILTRATION,INFIL_QUARTER_ON_SCH,DINING_FLR_6,331.66,238.6,2.946E-002,8.883E-005,6.864E-005,0.105,1.000,0.000,0.000,0.000
 ZoneInfiltration Airflow Stats Nominal, KITCHEN_FLR_6_INFILTRATION,INFIL_QUARTER_ON_SCH,KITCHEN_FLR_6,103.30,5.6,2.637E-002,2.553E-004,1.383E-004,0.302,1.000,0.000,0.000,0.000
 ZoneInfiltration Airflow Stats Nominal, LAUNDRY_FLR_1_INFILTRATION,INFIL_QUARTER_ON_SCH,LAUNDRY_FLR_1,78.04,3.4,2.590E-002,3.318E-004,3.020E-004,0.301,1.000,0.000,0.000,0.000
 ZoneInfiltration Airflow Stats Nominal, LOBBY_FLR_1_INFILTRATION,INFIL_QUARTER_ON_SCH,LOBBY_FLR_1,1308.19,422.0,0.131,1.004E-004,1.931E-004,9.119E-002,1.000,0.000,0.000,0.000
 ZoneInfiltration Airflow Stats Nominal, MECH_FLR_1_INFILTRATION,INFIL_QUARTER_ON_SCH,MECH_FLR_1,164.24,0.0,1.897E-002,1.155E-004,3.020E-004,0.105,1.000,0.000,0.000,0.000
 ZoneInfiltration Airflow Stats Nominal, RETAIL_1_FLR_1_INFILTRATION,INFIL_QUARTER_ON_SCH,RETAIL_1_FLR_1,67.07,10.8,2.079E-002,3.100E-004,1.530E-004,0.282,1.000,0.000,0.000,0.000
 ZoneInfiltration Airflow Stats Nominal, RETAIL_2_FLR_1_INFILTRATION,INFIL_QUARTER_ON_SCH,RETAIL_2_FLR_1,77.67,12.5,8.025E-003,1.033E-004,3.020E-004,9.387E-002,1.000,0.000,0.000,0.000
 ZoneInfiltration Airflow Stats Nominal, ROOM_1_FLR_3_INFILTRATION,INFIL_QUARTER_ON_SCH,ROOM_1_FLR_3,39.02,1.5,1.206E-002,3.092E-004,3.020E-004,0.365,1.000,0.000,0.000,0.000
 ZoneInfiltration Airflow Stats Nominal, ROOM_1_FLR_6_INFILTRATION,INFIL_QUARTER_ON_SCH,ROOM_1_FLR_6,39.02,1.5,1.206E-002,3.092E-004,1.528E-004,0.365,1.000,0.000,0.000,0.000
 ZoneInfiltration Airflow Stats Nominal, ROOM_2_FLR_3_INFILTRATION,INFIL_QUARTER_ON_SCH,ROOM_2_FLR_3,39.02,1.5,1.206E-002,3.092E-004,3.020E-004,0.365,1.000,0.000,0.000,0.000
 ZoneInfiltration Airflow Stats Nominal, ROOM_2_FLR_6_INFILTRATION,INFIL_QUARTER_ON_SCH,ROOM_2_FLR_6,39.02,1.5,1.206E-002,3.092E-004,1.528E-004,0.365,1.000,0.000,0.000,0.000
 ZoneInfiltration Airflow Stats Nominal, ROOM_3_MULT19_FLR_3_INFILTRATION,INFIL_QUARTER_ON_SCH,ROOM_3_MULT19_FLR_3,24.52,1.5,3.366E-003,1.373E-004,3.020E-004,0.162,1.000,0.000,0.000,0.000
 ZoneInfiltration Airflow Stats Nominal, ROOM_3_MULT9_FLR_6_INFILTRATION,INFIL_QUARTER_ON_SCH,ROOM_3_MULT9_FLR_6,24.53,1.5,6.173E-003,2.516E-004,1.373E-004,0.297,1.000,0.000,0.000,0.000
 ZoneInfiltration Airflow Stats Nominal, ROOM_4_MULT19_FLR_3_INFILTRATION,INFIL_QUARTER_ON_SCH,ROOM_4_MULT19_FLR_3,24.53,1.5,3.367E-003,1.373E-004,3.020E-004,0.162,1.000,0.000,0.000,0.000
 ZoneInfiltration Airflow Stats Nominal, ROOM_5_FLR_3_INFILTRATION,INFIL_QUARTER_ON_SCH,ROOM_5_FLR_3,39.02,1.5,1.206E-002,3.092E-004,3.020E-004,0.365,1.000,0.000,0.000,0.000
 ZoneInfiltration Airflow Stats Nominal, ROOM_6_FLR_3_INFILTRATION,INFIL_QUARTER_ON_SCH,ROOM_6_FLR_3,39.02,1.5,1.206E-002,3.092E-004,3.020E-004,0.365,1.000,0.000,0.000,0.000
 ZoneInfiltration Airflow Stats Nominal, STORAGE_FLR_1_INFILTRATION,INFIL_QUARTER_ON_SCH,STORAGE_FLR_1,94.76,2.0,1.094E-002,1.155E-004,3.020E-004,0.105,1.000,0.000,0.000,0.000
! <Mixing Airflow Stats Nominal>,Name,Schedule Name,Zone Name, Zone Floor Area {m2}, # Zone Occupants,Design Volume Flow Rate {m3/s},Volume Flow Rate/Floor Area {m3/s/m2},Volume Flow Rate/person Area {m3/s/person},ACH - Air Changes per Hour,From/Source Zone,Delta Temperature {C}
 Mixing Airflow Stats Nominal, KITCHEN_FLR_6 EXHAUST FANMIXING_0,ALWAYS_ON,KITCHEN_FLR_6,103.30,5.6,1.844,1.785E-002,0.332,21.077,DINING_FLR_6,0.00
! <AirFlow Model>, Simple
 AirFlow Model, Simple
! <RoomAir Model>, Zone Name, Mixing/Mundt/UCSDDV/UCSDCV/UCSDUFI/UCSDUFE/User Defined
RoomAir Model,BANQUET_FLR_6,Mixing/Well-Stirred
RoomAir Model,BASEMENT,Mixing/Well-Stirred
RoomAir Model,CAFE_FLR_1,Mixing/Well-Stirred
RoomAir Model,CORRIDOR_FLR_3,Mixing/Well-Stirred
RoomAir Model,CORRIDOR_FLR_6,Mixing/Well-Stirred
RoomAir Model,DINING_FLR_6,Mixing/Well-Stirred
RoomAir Model,KITCHEN_FLR_6,Mixing/Well-Stirred
RoomAir Model,LAUNDRY_FLR_1,Mixing/Well-Stirred
RoomAir Model,LOBBY_FLR_1,Mixing/Well-Stirred
RoomAir Model,MECH_FLR_1,Mixing/Well-Stirred
RoomAir Model,RETAIL_1_FLR_1,Mixing/Well-Stirred
RoomAir Model,RETAIL_2_FLR_1,Mixing/Well-Stirred
RoomAir Model,ROOM_1_FLR_3,Mixing/Well-Stirred
RoomAir Model,ROOM_1_FLR_6,Mixing/Well-Stirred
RoomAir Model,ROOM_2_FLR_3,Mixing/Well-Stirred
RoomAir Model,ROOM_2_FLR_6,Mixing/Well-Stirred
RoomAir Model,ROOM_3_MULT19_FLR_3,Mixing/Well-Stirred
RoomAir Model,ROOM_3_MULT9_FLR_6,Mixing/Well-Stirred
RoomAir Model,ROOM_4_MULT19_FLR_3,Mixing/Well-Stirred
RoomAir Model,ROOM_5_FLR_3,Mixing/Well-Stirred
RoomAir Model,ROOM_6_FLR_3,Mixing/Well-Stirred
RoomAir Model,STORAGE_FLR_1,Mixing/Well-Stirred
! <AirflowNetwork Model:Control>, No Multizone or Distribution/Multizone with Distribution/Multizone without Distribution/Multizone with Distribution only during Fan Operation
AirflowNetwork Model:Control,NoMultizoneOrDistribution
! <Zone Volume Capacitance Multiplier>, Sensible Heat Capacity Multiplier, Moisture Capacity Multiplier, Carbon Dioxide Capacity Multiplier, Generic Contaminant Capacity Multiplier
Zone Volume Capacitance Multiplier,   1.000 ,   1.000,   1.000,   1.000
! <Load Timesteps in Zone Design Calculation Averaging Window>, Value
 Load Timesteps in Zone Design Calculation Averaging Window,    6
! <Heating Sizing Factor Information>, Sizing Factor ID, Value
 Heating Sizing Factor Information, Global,   1.3300    
 Heating Sizing Factor Information, Zone BANQUET_FLR_6,   1.3300    
 Heating Sizing Factor Information, Zone BASEMENT,   1.3300    
 Heating Sizing Factor Information, Zone CAFE_FLR_1,   1.3300    
 Heating Sizing Factor Information, Zone CORRIDOR_FLR_3,   1.3300    
 Heating Sizing Factor Information, Zone CORRIDOR_FLR_6,   1.3300    
 Heating Sizing Factor Information, Zone DINING_FLR_6,   1.3300    
 Heating Sizing Factor Information, Zone KITCHEN_FLR_6,   1.3300    
 Heating Sizing Factor Information, Zone LAUNDRY_FLR_1,   1.3300    
 Heating Sizing Factor Information, Zone LOBBY_FLR_1,   1.3300    
 Heating Sizing Factor Information, Zone MECH_FLR_1,   1.3300    
 Heating Sizing Factor Information, Zone RETAIL_1_FLR_1,   1.3300    
 Heating Sizing Factor Information, Zone RETAIL_2_FLR_1,   1.3300    
 Heating Sizing Factor Information, Zone ROOM_1_FLR_3,   1.3300    
 Heating Sizing Factor Information, Zone ROOM_1_FLR_6,   1.3300    
 Heating Sizing Factor Information, Zone ROOM_2_FLR_3,   1.3300    
 Heating Sizing Factor Information, Zone ROOM_2_FLR_6,   1.3300    
 Heating Sizing Factor Information, Zone ROOM_3_MULT19_FLR_3,   1.3300    
 Heating Sizing Factor Information, Zone ROOM_3_MULT9_FLR_6,   1.3300    
 Heating Sizing Factor Information, Zone ROOM_4_MULT19_FLR_3,   1.3300    
 Heating Sizing Factor Information, Zone ROOM_5_FLR_3,   1.3300    
 Heating Sizing Factor Information, Zone ROOM_6_FLR_3,   1.3300    
 Heating Sizing Factor Information, Zone STORAGE_FLR_1,   1.3300    
! <Cooling Sizing Factor Information>, Sizing Factor ID, Value
 Cooling Sizing Factor Information, Global,   1.3300    
 Cooling Sizing Factor Information, Zone BANQUET_FLR_6,   1.3300    
 Cooling Sizing Factor Information, Zone BASEMENT,   1.3300    
 Cooling Sizing Factor Information, Zone CAFE_FLR_1,   1.3300    
 Cooling Sizing Factor Information, Zone CORRIDOR_FLR_3,   1.3300    
 Cooling Sizing Factor Information, Zone CORRIDOR_FLR_6,   1.3300    
 Cooling Sizing Factor Information, Zone DINING_FLR_6,   1.3300    
 Cooling Sizing Factor Information, Zone KITCHEN_FLR_6,   1.3300    
 Cooling Sizing Factor Information, Zone LAUNDRY_FLR_1,   1.3300    
 Cooling Sizing Factor Information, Zone LOBBY_FLR_1,   1.3300    
 Cooling Sizing Factor Information, Zone MECH_FLR_1,   1.3300    
 Cooling Sizing Factor Information, Zone RETAIL_1_FLR_1,   1.3300    
 Cooling Sizing Factor Information, Zone RETAIL_2_FLR_1,   1.3300    
 Cooling Sizing Factor Information, Zone ROOM_1_FLR_3,   1.3300    
 Cooling Sizing Factor Information, Zone ROOM_1_FLR_6,   1.3300    
 Cooling Sizing Factor Information, Zone ROOM_2_FLR_3,   1.3300    
 Cooling Sizing Factor Information, Zone ROOM_2_FLR_6,   1.3300    
 Cooling Sizing Factor Information, Zone ROOM_3_MULT19_FLR_3,   1.3300    
 Cooling Sizing Factor Information, Zone ROOM_3_MULT9_FLR_6,   1.3300    
 Cooling Sizing Factor Information, Zone ROOM_4_MULT19_FLR_3,   1.3300    
 Cooling Sizing Factor Information, Zone ROOM_5_FLR_3,   1.3300    
 Cooling Sizing Factor Information, Zone ROOM_6_FLR_3,   1.3300    
 Cooling Sizing Factor Information, Zone STORAGE_FLR_1,   1.3300    
! <Zone Sizing Information>, Zone Name, Load Type, Calc Des Load {W}, User Des Load {W}, Calc Des Air Flow Rate {m3/s}, User Des Air Flow Rate {m3/s}, Design Day Name, Date/Time of Peak, Temperature at Peak {C}, Humidity Ratio at Peak {kgWater/kgDryAir}, Floor Area {m2}, # Occupants, Calc Outdoor Air Flow Rate {m3/s}, Calc DOAS Heat Addition Rate {W}
 Zone Sizing Information, BANQUET_FLR_6, Cooling, 39308.60509, 52280.44476, 3.12622, 4.15787, BALTIMORE ANN CLG .4% CONDNS WB=>MDB, 7/21 08:00:00, 23.60400, 1.85287E-002, 331.65745, 238.60248, 2.38602, 0.00000
 Zone Sizing Information, BANQUET_FLR_6, Heating, 18642.76098, 24794.87210, 0.78423, 2.38602, BALTIMORE ANN HTG 99.6% CONDNS DB, 1/21 08:00:00, -11.00000, 1.47100E-003, 331.65745, 238.60248, 2.38602, 0.00000
 Zone Sizing Information, BASEMENT, Cooling, 41744.20538, 55519.79316, 3.28005, 4.36247, BALTIMORE ANN CLG .4% CONDNS WB=>MDB, 7/21 08:00:00, 23.60400, 1.85287E-002, 1978.83018, 53.25162, 0.49471, 0.00000
 Zone Sizing Information, BASEMENT, Heating, 15968.08739, 21237.55624, 0.68053, 0.90511, BALTIMORE ANN HTG 99.6% CONDNS DB, 1/21 08:00:00, -11.00000, 1.47100E-003, 1978.83018, 53.25162, 0.49471, 0.00000
 Zone Sizing Information, CAFE_FLR_1, Cooling, 18323.14197, 24369.77882, 1.50176, 1.99734, BALTIMORE ANN CLG .4% CONDNS WB=>MDB, 7/21 15:40:00, 30.88400, 1.85424E-002, 188.86188, 135.87186, 1.35872, 0.00000
 Zone Sizing Information, CAFE_FLR_1, Heating, 14609.25646, 19430.31109, 0.61480, 1.35872, BALTIMORE ANN HTG 99.6% CONDNS DB, 1/21 08:00:00, -11.00000, 1.47100E-003, 188.86188, 135.87186, 1.35872, 0.00000
 Zone Sizing Information, CORRIDOR_FLR_3, Cooling, 7431.10117, 9883.36456, 0.38000, 0.50540, BALTIMORE ANN CLG .4% CONDNS WB=>MDB, 7/21 18:40:00, 27.76400, 1.85424E-002, 389.40468, 4.19165, 0.38940, 0.00000
 Zone Sizing Information, CORRIDOR_FLR_3, Heating, 4779.65120, 6356.93610, 0.16307, 0.38940, BALTIMORE ANN HTG 99.6% CONDNS DB, 1/21 24:00:00, -11.00000, 1.47100E-003, 389.40468, 4.19165, 0.38940, 0.00000
 Zone Sizing Information, CORRIDOR_FLR_6, Cooling, 4691.47780, 6239.66548, 0.23991, 0.31908, BALTIMORE ANN CLG .4% CONDNS WB=>MDB, 7/21 17:20:00, 29.49733, 1.85424E-002, 412.12471, 4.43622, 0.10303, 0.00000
 Zone Sizing Information, CORRIDOR_FLR_6, Heating, 7045.79142, 9370.90259, 0.24039, 0.31972, BALTIMORE ANN HTG 99.6% CONDNS DB, 1/21 07:20:00, -11.00000, 1.47100E-003, 412.12471, 4.43622, 0.10303, 0.00000
 Zone Sizing Information, DINING_FLR_6, Cooling, 40497.87262, 53862.17059, 3.22118, 4.28417, BALTIMORE ANN CLG .4% CONDNS WB=>MDB, 7/21 08:00:00, 23.60400, 1.85287E-002, 331.65745, 238.60248, 2.38602, 0.00000
 Zone Sizing Information, DINING_FLR_6, Heating, 18209.23757, 24218.28597, 0.76569, 2.38602, BALTIMORE ANN HTG 99.6% CONDNS DB, 1/21 08:00:00, -11.00000, 1.47100E-003, 331.65745, 238.60248, 2.38602, 0.00000
 Zone Sizing Information, KITCHEN_FLR_6, Cooling, 20850.42592, 27731.06647, 1.39632, 1.85710, BALTIMORE ANN CLG .4% CONDNS WB=>MDB, 7/21 08:00:00, 23.60400, 1.85287E-002, 103.30446, 5.56000, 4.44800E-002, 0.00000
 Zone Sizing Information, KITCHEN_FLR_6, Heating, 4985.91295, 6631.26422, 0.17240, 0.22929, BALTIMORE ANN HTG 99.6% CONDNS DB, 1/21 07:10:00, -11.00000, 1.47100E-003, 103.30446, 5.56000, 4.44800E-002, 0.00000
 Zone Sizing Information, LAUNDRY_FLR_1, Cooling, 47726.84858, 63476.70861, 3.77109, 5.01555, BALTIMORE ANN CLG .4% CONDNS WB=>MDB, 7/21 08:00:00, 23.60400, 1.85287E-002, 78.03947, 3.35943, 0.23600, 0.00000
 Zone Sizing Information, LAUNDRY_FLR_1, Heating, 4513.22198, 6002.58523, 0.18895, 0.25131, BALTIMORE ANN HTG 99.6% CONDNS DB, 1/21 08:00:00, -11.00000, 1.47100E-003, 78.03947, 3.35943, 0.23600, 0.00000
 Zone Sizing Information, LOBBY_FLR_1, Cooling, 87979.96144, 117013.34871, 6.85036, 9.11098, BALTIMORE ANN CLG .4% CONDNS WB=>MDB, 7/21 08:00:00, 23.60400, 1.85287E-002, 1308.18612, 421.99552, 4.21996, 0.00000
 Zone Sizing Information, LOBBY_FLR_1, Heating, 41399.88186, 55061.84287, 1.72429, 4.21996, BALTIMORE ANN HTG 99.6% CONDNS DB, 1/21 08:00:00, -11.00000, 1.47100E-003, 1308.18612, 421.99552, 4.21996, 0.00000
 Zone Sizing Information, MECH_FLR_1, Cooling, 1512.96959, 2012.24956, 7.73633E-002, 0.10289, BALTIMORE ANN CLG .4% CONDNS WB=>MDB, 7/21 07:20:00, 22.42533, 1.72176E-002, 164.24319, 0.00000, 4.10608E-002, 0.00000
 Zone Sizing Information, MECH_FLR_1, Heating, 0.00000, 0.00000, 0.00000, 4.10608E-002, BALTIMORE ANN HTG 99.6% CONDNS DB, , -11.00000, 1.47100E-003, 164.24319, 0.00000, 4.10608E-002, 0.00000
 Zone Sizing Information, RETAIL_1_FLR_1, Cooling, 4890.40272, 6504.23562, 0.38172, 0.50769, BALTIMORE ANN CLG .4% CONDNS WB=>MDB, 7/21 08:00:00, 23.60400, 1.85287E-002, 67.07136, 10.83544, 0.10195, 0.00000
 Zone Sizing Information, RETAIL_1_FLR_1, Heating, 5624.35787, 7480.39597, 0.23703, 0.31524, BALTIMORE ANN HTG 99.6% CONDNS DB, 1/21 08:00:00, -11.00000, 1.47100E-003, 67.07136, 10.83544, 0.10195, 0.00000
 Zone Sizing Information, RETAIL_2_FLR_1, Cooling, 5644.95905, 7507.79554, 0.44046, 0.58582, BALTIMORE ANN CLG .4% CONDNS WB=>MDB, 7/21 08:00:00, 23.60400, 1.85287E-002, 77.66889, 12.54748, 0.11806, 0.00000
 Zone Sizing Information, RETAIL_2_FLR_1, Heating, 2331.12487, 3100.39608, 9.79010E-002, 0.13021, BALTIMORE ANN HTG 99.6% CONDNS DB, 1/21 08:00:00, -11.00000, 1.47100E-003, 77.66889, 12.54748, 0.11806, 0.00000
 Zone Sizing Information, ROOM_1_FLR_3, Cooling, 12801.17557, 17025.56351, 0.87291, 1.16097, BALTIMORE ANN CLG .4% CONDNS WB=>MDB, 7/21 17:20:00, 29.49733, 1.85424E-002, 39.02202, 1.50027, 5.66400E-002, 0.00000
 Zone Sizing Information, ROOM_1_FLR_3, Heating, 7430.27038, 9882.25961, 0.32020, 0.42587, BALTIMORE ANN HTG 99.6% CONDNS DB, 1/21 00:20:00, -11.00000, 1.47100E-003, 39.02202, 1.50027, 5.66400E-002, 0.00000
 Zone Sizing Information, ROOM_1_FLR_6, Cooling, 3533.34394, 4699.34745, 0.24094, 0.32045, BALTIMORE ANN CLG .4% CONDNS WB=>MDB, 7/21 17:30:00, 29.32400, 1.85424E-002, 39.02202, 1.50027, 1.41600E-002, 0.00000
 Zone Sizing Information, ROOM_1_FLR_6, Heating, 2171.88020, 2888.60066, 9.35971E-002, 0.12448, BALTIMORE ANN HTG 99.6% CONDNS DB, 1/21 00:40:00, -11.00000, 1.47100E-003, 39.02202, 1.50027, 1.41600E-002, 0.00000
 Zone Sizing Information, ROOM_2_FLR_3, Cooling, 12694.20223, 16883.28896, 0.86561, 1.15127, BALTIMORE ANN CLG .4% CONDNS WB=>MDB, 7/21 17:30:00, 29.32400, 1.85424E-002, 39.01745, 1.50009, 5.66400E-002, 0.00000
 Zone Sizing Information, ROOM_2_FLR_3, Heating, 7434.53521, 9887.93183, 0.32039, 0.42611, BALTIMORE ANN HTG 99.6% CONDNS DB, 1/21 00:20:00, -11.00000, 1.47100E-003, 39.01745, 1.50009, 5.66400E-002, 0.00000
 Zone Sizing Information, ROOM_2_FLR_6, Cooling, 3510.81436, 4669.38310, 0.23940, 0.31840, BALTIMORE ANN CLG .4% CONDNS WB=>MDB, 7/21 17:30:00, 29.32400, 1.85424E-002, 39.01745, 1.50009, 1.41600E-002, 0.00000
 Zone Sizing Information, ROOM_2_FLR_6, Heating, 2175.98745, 2894.06330, 9.37741E-002, 0.12472, BALTIMORE ANN HTG 99.6% CONDNS DB, 1/21 00:40:00, -11.00000, 1.47100E-003, 39.01745, 1.50009, 1.41600E-002, 0.00000
 Zone Sizing Information, ROOM_3_MULT19_FLR_3, Cooling, 72132.61286, 95936.37510, 5.13000, 20.44704, BALTIMORE ANN CLG .4% CONDNS WB=>MDB, 7/21 15:40:00, 30.88400, 1.85424E-002, 24.52384, 1.49993, 20.44704, 0.00000
 Zone Sizing Information, ROOM_3_MULT19_FLR_3, Heating, 37315.71316, 49629.89850, 1.60817, 20.44704, BALTIMORE ANN HTG 99.6% CONDNS DB, 1/21 00:40:00, -11.00000, 1.47100E-003, 24.52384, 1.49993, 20.44704, 0.00000
 Zone Sizing Information, ROOM_3_MULT9_FLR_6, Cooling, 11799.17224, 15692.89908, 0.83917, 1.14696, BALTIMORE ANN CLG .4% CONDNS WB=>MDB, 7/21 15:50:00, 30.78000, 1.85424E-002, 24.53055, 1.50034, 1.14696, 0.00000
 Zone Sizing Information, ROOM_3_MULT9_FLR_6, Heating, 10646.22481, 14159.47900, 0.45880, 1.14696, BALTIMORE ANN HTG 99.6% CONDNS DB, 1/21 00:40:00, -11.00000, 1.47100E-003, 24.53055, 1.50034, 1.14696, 0.00000
 Zone Sizing Information, ROOM_4_MULT19_FLR_3, Cooling, 67970.85452, 90401.23651, 4.83404, 20.44704, BALTIMORE ANN CLG .4% CONDNS WB=>MDB, 7/21 15:20:00, 31.09200, 1.85424E-002, 24.53055, 1.50034, 20.44704, 0.00000
 Zone Sizing Information, ROOM_4_MULT19_FLR_3, Heating, 37351.59148, 49677.61667, 1.60971, 20.44704, BALTIMORE ANN HTG 99.6% CONDNS DB, 1/21 00:40:00, -11.00000, 1.47100E-003, 24.53055, 1.50034, 20.44704, 0.00000
 Zone Sizing Information, ROOM_5_FLR_3, Cooling, 11358.74857, 15107.13560, 0.80825, 1.07497, BALTIMORE ANN CLG .4% CONDNS WB=>MDB, 7/21 09:20:00, 26.16933, 1.85424E-002, 39.02202, 1.50027, 5.66400E-002, 0.00000
 Zone Sizing Information, ROOM_5_FLR_3, Heating, 7415.85805, 9863.09121, 0.31958, 0.42504, BALTIMORE ANN HTG 99.6% CONDNS DB, 1/21 00:20:00, -11.00000, 1.47100E-003, 39.02202, 1.50027, 5.66400E-002, 0.00000
 Zone Sizing Information, ROOM_6_FLR_3, Cooling, 11286.54336, 15011.10266, 0.82684, 1.09969, BALTIMORE ANN CLG .4% CONDNS WB=>MDB, 7/21 09:10:00, 25.87467, 1.85424E-002, 39.01745, 1.50009, 5.66400E-002, 0.00000
 Zone Sizing Information, ROOM_6_FLR_3, Heating, 7420.09617, 9868.72791, 0.31976, 0.42529, BALTIMORE ANN HTG 99.6% CONDNS DB, 1/21 00:20:00, -11.00000, 1.47100E-003, 39.01745, 1.50009, 5.66400E-002, 0.00000
 Zone Sizing Information, STORAGE_FLR_1, Cooling, 379.33943, 504.52144, 1.93993E-002, 7.20170E-002, BALTIMORE ANN CLG .4% CONDNS WB=>MDB, 7/21 07:20:00, 22.42533, 1.72176E-002, 94.75927, 2.04003, 7.20170E-002, 0.00000
 Zone Sizing Information, STORAGE_FLR_1, Heating, 0.00000, 0.00000, 0.00000, 7.20170E-002, BALTIMORE ANN HTG 99.6% CONDNS DB, , -11.00000, 1.47100E-003, 94.75927, 2.04003, 7.20170E-002, 0.00000
! <System Sizing Information>, System Name, Load Type, Peak Load Kind, User Design Capacity, Calc Des Air Flow Rate [m3/s], User Des Air Flow Rate [m3/s], Design Day Name, Date/Time of Peak
 System Sizing Information, FLR_3_DOAS, Cooling, Sensible, 51100.18, 45.38098, 2.37888, BALTIMORE ANN CLG .4% CONDNS WB=>MDB, 7/21 00:00:00
 System Sizing Information, FLR_3_DOAS, Heating, Sensible, 83021.77, 42.59640, 2.37888, BALTIMORE ANN HTG 99.6% CONDNS DB, 1/21 00:20:00
 System Sizing Information, FLR_6_DOAS, Cooling, Sensible, 3268.91, 1.78581, 0.15576, BALTIMORE ANN CLG .4% CONDNS WB=>MDB, 7/21 00:00:00
 System Sizing Information, FLR_6_DOAS, Heating, Sensible, 5435.95, 1.39616, 0.15576, BALTIMORE ANN HTG 99.6% CONDNS DB, 1/21 00:40:00
 System Sizing Information, VAV WITH REHEAT, Cooling, Sensible, 458080.35, 32.87838, 32.87838, BALTIMORE ANN CLG .4% CONDNS WB=>MDB, 7/21 00:00:00
 System Sizing Information, VAV WITH REHEAT, Heating, Sensible, 393648.13, 13.00408, 13.00408, BALTIMORE ANN HTG 99.6% CONDNS DB, 1/21 02:20:00
! <Component Sizing Information>, Component Type, Component Name, Input Field Description, Value
 Component Sizing Information, AirTerminal:SingleDuct:VAV:Reheat, BANQUET_FLR_6 VAV BOX COMPONENT, Design Size Maximum Air Flow Rate [m3/s], 4.15787
 Component Sizing Information, AirTerminal:SingleDuct:VAV:Reheat, BANQUET_FLR_6 VAV BOX COMPONENT, Design Size Constant Minimum Air Flow Fraction, 0.20000
 Component Sizing Information, AirTerminal:SingleDuct:VAV:Reheat, BANQUET_FLR_6 VAV BOX COMPONENT, User-Specified Constant Minimum Air Flow Fraction, 0.30000
 Component Sizing Information, AirTerminal:SingleDuct:VAV:Reheat, BANQUET_FLR_6 VAV BOX COMPONENT, Design Size Minimum Air Flow Rate [m3/s], 1.24736
 Component Sizing Information, AirTerminal:SingleDuct:VAV:Reheat, BANQUET_FLR_6 VAV BOX COMPONENT, Design Size Maximum Flow per Zone Floor Area during Reheat [m3/s-m2], 3.76099E-003
 Component Sizing Information, AirTerminal:SingleDuct:VAV:Reheat, BANQUET_FLR_6 VAV BOX COMPONENT, Design Size Maximum Flow Fraction during Reheat [], 0.30000
 Component Sizing Information, AirTerminal:SingleDuct:VAV:Reheat, BANQUET_FLR_6 VAV BOX COMPONENT, Design Size Maximum Reheat Water Flow Rate [m3/s], 6.86237E-004
 Component Sizing Information, AirTerminal:SingleDuct:VAV:Reheat, BANQUET_FLR_6 VAV BOX COMPONENT, Design Size Reheat Coil Sizing Air Volume Flow Rate [m3/s], 1.24736
 Component Sizing Information, AirTerminal:SingleDuct:VAV:Reheat, BANQUET_FLR_6 VAV BOX COMPONENT, Design Size Reheat Coil Sizing Inlet Air Temperature [C], 16.70000
 Component Sizing Information, AirTerminal:SingleDuct:VAV:Reheat, BANQUET_FLR_6 VAV BOX COMPONENT, Design Size Reheat Coil Sizing Inlet Air Humidity Ratio [kgWater/kgDryAir], 8.00000E-003
 Component Sizing Information, Coil:Heating:Water, BANQUET_FLR_6 VAV BOX REHEAT COIL, Design Size Rated Capacity [W], 31874.85607
 Component Sizing Information, Coil:Heating:Water, BANQUET_FLR_6 VAV BOX REHEAT COIL, Design Size Maximum Water Flow Rate [m3/s], 6.86237E-004
 Component Sizing Information, Coil:Heating:Water, BANQUET_FLR_6 VAV BOX REHEAT COIL, Design Size U-Factor Times Area Value [W/K], 658.37090
! <Water Heating Coil Capacity Information>,Component Type,Name,Nominal Total Capacity {W}
Water Heating Coil Capacity Information,Coil:Heating:Water,BANQUET_FLR_6 VAV BOX REHEAT COIL,31430.71
 Component Sizing Information, AirTerminal:SingleDuct:VAV:Reheat, BASEMENT VAV BOX COMPONENT, Design Size Maximum Air Flow Rate [m3/s], 4.36247
 Component Sizing Information, AirTerminal:SingleDuct:VAV:Reheat, BASEMENT VAV BOX COMPONENT, Design Size Constant Minimum Air Flow Fraction, 0.34565
 Component Sizing Information, AirTerminal:SingleDuct:VAV:Reheat, BASEMENT VAV BOX COMPONENT, User-Specified Constant Minimum Air Flow Fraction, 0.30000
 Component Sizing Information, AirTerminal:SingleDuct:VAV:Reheat, BASEMENT VAV BOX COMPONENT, Design Size Minimum Air Flow Rate [m3/s], 1.30874
 Component Sizing Information, AirTerminal:SingleDuct:VAV:Reheat, BASEMENT VAV BOX COMPONENT, Design Size Maximum Flow per Zone Floor Area during Reheat [m3/s-m2], 6.61371E-004
 Component Sizing Information, AirTerminal:SingleDuct:VAV:Reheat, BASEMENT VAV BOX COMPONENT, Design Size Maximum Flow Fraction during Reheat [], 0.30000
 Component Sizing Information, AirTerminal:SingleDuct:VAV:Reheat, BASEMENT VAV BOX COMPONENT, Design Size Maximum Reheat Water Flow Rate [m3/s], 6.15463E-004
 Component Sizing Information, AirTerminal:SingleDuct:VAV:Reheat, BASEMENT VAV BOX COMPONENT, Design Size Reheat Coil Sizing Air Volume Flow Rate [m3/s], 1.30874
 Component Sizing Information, AirTerminal:SingleDuct:VAV:Reheat, BASEMENT VAV BOX COMPONENT, Design Size Reheat Coil Sizing Inlet Air Temperature [C], 16.70000
 Component Sizing Information, AirTerminal:SingleDuct:VAV:Reheat, BASEMENT VAV BOX COMPONENT, Design Size Reheat Coil Sizing Inlet Air Humidity Ratio [kgWater/kgDryAir], 8.00000E-003
 Component Sizing Information, Coil:Heating:Water, BASEMENT VAV BOX REHEAT COIL, Design Size Rated Capacity [W], 28587.48021
 Component Sizing Information, Coil:Heating:Water, BASEMENT VAV BOX REHEAT COIL, Design Size Maximum Water Flow Rate [m3/s], 6.15463E-004
 Component Sizing Information, Coil:Heating:Water, BASEMENT VAV BOX REHEAT COIL, Design Size U-Factor Times Area Value [W/K], 573.76847
Water Heating Coil Capacity Information,Coil:Heating:Water,BASEMENT VAV BOX REHEAT COIL,28195.44
 Component Sizing Information, AirTerminal:SingleDuct:VAV:Reheat, CAFE_FLR_1 VAV BOX COMPONENT, Design Size Maximum Air Flow Rate [m3/s], 1.99734
 Component Sizing Information, AirTerminal:SingleDuct:VAV:Reheat, CAFE_FLR_1 VAV BOX COMPONENT, Design Size Constant Minimum Air Flow Fraction, 0.20000
 Component Sizing Information, AirTerminal:SingleDuct:VAV:Reheat, CAFE_FLR_1 VAV BOX COMPONENT, User-Specified Constant Minimum Air Flow Fraction, 0.30000
 Component Sizing Information, AirTerminal:SingleDuct:VAV:Reheat, CAFE_FLR_1 VAV BOX COMPONENT, Design Size Minimum Air Flow Rate [m3/s], 0.59920
 Component Sizing Information, AirTerminal:SingleDuct:VAV:Reheat, CAFE_FLR_1 VAV BOX COMPONENT, Design Size Maximum Flow per Zone Floor Area during Reheat [m3/s-m2], 3.17270E-003
 Component Sizing Information, AirTerminal:SingleDuct:VAV:Reheat, CAFE_FLR_1 VAV BOX COMPONENT, Design Size Maximum Flow Fraction during Reheat [], 0.30000
 Component Sizing Information, AirTerminal:SingleDuct:VAV:Reheat, CAFE_FLR_1 VAV BOX COMPONENT, Design Size Maximum Reheat Water Flow Rate [m3/s], 5.19375E-004
 Component Sizing Information, AirTerminal:SingleDuct:VAV:Reheat, CAFE_FLR_1 VAV BOX COMPONENT, Design Size Reheat Coil Sizing Air Volume Flow Rate [m3/s], 0.81769
 Component Sizing Information, AirTerminal:SingleDuct:VAV:Reheat, CAFE_FLR_1 VAV BOX COMPONENT, Design Size Reheat Coil Sizing Inlet Air Temperature [C], 16.70000
 Component Sizing Information, AirTerminal:SingleDuct:VAV:Reheat, CAFE_FLR_1 VAV BOX COMPONENT, Design Size Reheat Coil Sizing Inlet Air Humidity Ratio [kgWater/kgDryAir], 8.00000E-003
 Component Sizing Information, Coil:Heating:Water, CAFE_FLR_1 VAV BOX REHEAT COIL, Design Size Rated Capacity [W], 24124.31486
 Component Sizing Information, Coil:Heating:Water, CAFE_FLR_1 VAV BOX REHEAT COIL, Design Size Maximum Water Flow Rate [m3/s], 5.19375E-004
 Component Sizing Information, Coil:Heating:Water, CAFE_FLR_1 VAV BOX REHEAT COIL, Design Size U-Factor Times Area Value [W/K], 515.22838
Water Heating Coil Capacity Information,Coil:Heating:Water,CAFE_FLR_1 VAV BOX REHEAT COIL,22195.71
 Component Sizing Information, AirTerminal:SingleDuct:VAV:Reheat, CORRIDOR_FLR_3 VAV BOX COMPONENT, Design Size Maximum Air Flow Rate [m3/s], 0.50540
 Component Sizing Information, AirTerminal:SingleDuct:VAV:Reheat, CORRIDOR_FLR_3 VAV BOX COMPONENT, Design Size Constant Minimum Air Flow Fraction, 2.34845
 Component Sizing Information, AirTerminal:SingleDuct:VAV:Reheat, CORRIDOR_FLR_3 VAV BOX COMPONENT, User-Specified Constant Minimum Air Flow Fraction, 0.30000
 Component Sizing Information, AirTerminal:SingleDuct:VAV:Reheat, CORRIDOR_FLR_3 VAV BOX COMPONENT, Design Size Minimum Air Flow Rate [m3/s], 0.15162
 Component Sizing Information, AirTerminal:SingleDuct:VAV:Reheat, CORRIDOR_FLR_3 VAV BOX COMPONENT, Design Size Maximum Flow per Zone Floor Area during Reheat [m3/s-m2], 9.73407E-005
 Component Sizing Information, AirTerminal:SingleDuct:VAV:Reheat, CORRIDOR_FLR_3 VAV BOX COMPONENT, Design Size Maximum Flow Fraction during Reheat [], 0.30000
 Component Sizing Information, AirTerminal:SingleDuct:VAV:Reheat, CORRIDOR_FLR_3 VAV BOX COMPONENT, Design Size Maximum Reheat Water Flow Rate [m3/s], 1.35126E-004
 Component Sizing Information, AirTerminal:SingleDuct:VAV:Reheat, CORRIDOR_FLR_3 VAV BOX COMPONENT, Design Size Reheat Coil Sizing Air Volume Flow Rate [m3/s], 0.21689
 Component Sizing Information, AirTerminal:SingleDuct:VAV:Reheat, CORRIDOR_FLR_3 VAV BOX COMPONENT, Design Size Reheat Coil Sizing Inlet Air Temperature [C], 16.70000
 Component Sizing Information, AirTerminal:SingleDuct:VAV:Reheat, CORRIDOR_FLR_3 VAV BOX COMPONENT, Design Size Reheat Coil Sizing Inlet Air Humidity Ratio [kgWater/kgDryAir], 8.00000E-003
 Component Sizing Information, Coil:Heating:Water, CORRIDOR_FLR_3 VAV BOX REHEAT COIL, Design Size Rated Capacity [W], 6276.44688
 Component Sizing Information, Coil:Heating:Water, CORRIDOR_FLR_3 VAV BOX REHEAT COIL, Design Size Maximum Water Flow Rate [m3/s], 1.35126E-004
 Component Sizing Information, Coil:Heating:Water, CORRIDOR_FLR_3 VAV BOX REHEAT COIL, Design Size U-Factor Times Area Value [W/K], 133.38266
Water Heating Coil Capacity Information,Coil:Heating:Water,CORRIDOR_FLR_3 VAV BOX REHEAT COIL,5714.04
 Component Sizing Information, AirTerminal:SingleDuct:VAV:Reheat, CORRIDOR_FLR_6 VAV BOX COMPONENT, Design Size Maximum Air Flow Rate [m3/s], 0.31972
 Component Sizing Information, AirTerminal:SingleDuct:VAV:Reheat, CORRIDOR_FLR_6 VAV BOX COMPONENT, Design Size Constant Minimum Air Flow Fraction, 0.98223
 Component Sizing Information, AirTerminal:SingleDuct:VAV:Reheat, CORRIDOR_FLR_6 VAV BOX COMPONENT, User-Specified Constant Minimum Air Flow Fraction, 0.30000
 Component Sizing Information, AirTerminal:SingleDuct:VAV:Reheat, CORRIDOR_FLR_6 VAV BOX COMPONENT, Design Size Minimum Air Flow Rate [m3/s], 9.59157E-002
 Component Sizing Information, AirTerminal:SingleDuct:VAV:Reheat, CORRIDOR_FLR_6 VAV BOX COMPONENT, Design Size Maximum Flow per Zone Floor Area during Reheat [m3/s-m2], 2.32735E-004
 Component Sizing Information, AirTerminal:SingleDuct:VAV:Reheat, CORRIDOR_FLR_6 VAV BOX COMPONENT, Design Size Maximum Flow Fraction during Reheat [], 0.30000
 Component Sizing Information, AirTerminal:SingleDuct:VAV:Reheat, CORRIDOR_FLR_6 VAV BOX COMPONENT, Design Size Maximum Reheat Water Flow Rate [m3/s], 1.99190E-004
 Component Sizing Information, AirTerminal:SingleDuct:VAV:Reheat, CORRIDOR_FLR_6 VAV BOX COMPONENT, Design Size Reheat Coil Sizing Air Volume Flow Rate [m3/s], 0.31972
 Component Sizing Information, AirTerminal:SingleDuct:VAV:Reheat, CORRIDOR_FLR_6 VAV BOX COMPONENT, Design Size Reheat Coil Sizing Inlet Air Temperature [C], 16.70000
 Component Sizing Information, AirTerminal:SingleDuct:VAV:Reheat, CORRIDOR_FLR_6 VAV BOX COMPONENT, Design Size Reheat Coil Sizing Inlet Air Humidity Ratio [kgWater/kgDryAir], 8.00000E-003
 Component Sizing Information, Coil:Heating:Water, CORRIDOR_FLR_6 VAV BOX REHEAT COIL, Design Size Rated Capacity [W], 9252.12673
 Component Sizing Information, Coil:Heating:Water, CORRIDOR_FLR_6 VAV BOX REHEAT COIL, Design Size Maximum Water Flow Rate [m3/s], 1.99190E-004
 Component Sizing Information, Coil:Heating:Water, CORRIDOR_FLR_6 VAV BOX REHEAT COIL, Design Size U-Factor Times Area Value [W/K], 196.61919
Water Heating Coil Capacity Information,Coil:Heating:Water,CORRIDOR_FLR_6 VAV BOX REHEAT COIL,5980.75
 Component Sizing Information, ZoneHVAC:UnitHeater, CORRIDOR_FLR_6 UNIT HEATER, Design Size Maximum Supply Air Flow Rate [m3/s], 0.31972
 Component Sizing Information, Fan:ConstantVolume, CORRIDOR_FLR_6 UNIT HEATERFAN, Design Size Maximum Flow Rate [m3/s], 0.31972
 Component Sizing Information, Coil:Heating:Electric, CORRIDOR_FLR_6 UNIT HEATER COIL, Design Size Nominal Capacity [W], 12768.02095
 Component Sizing Information, AirTerminal:SingleDuct:VAV:Reheat, DINING_FLR_6 VAV BOX COMPONENT, Design Size Maximum Air Flow Rate [m3/s], 4.28417
 Component Sizing Information, AirTerminal:SingleDuct:VAV:Reheat, DINING_FLR_6 VAV BOX COMPONENT, Design Size Constant Minimum Air Flow Fraction, 0.43131
 Component Sizing Information, AirTerminal:SingleDuct:VAV:Reheat, DINING_FLR_6 VAV BOX COMPONENT, User-Specified Constant Minimum Air Flow Fraction, 0.30000
 Component Sizing Information, AirTerminal:SingleDuct:VAV:Reheat, DINING_FLR_6 VAV BOX COMPONENT, Design Size Minimum Air Flow Rate [m3/s], 1.28525
 Component Sizing Information, AirTerminal:SingleDuct:VAV:Reheat, DINING_FLR_6 VAV BOX COMPONENT, Design Size Maximum Flow per Zone Floor Area during Reheat [m3/s-m2], 3.87524E-003
 Component Sizing Information, AirTerminal:SingleDuct:VAV:Reheat, DINING_FLR_6 VAV BOX COMPONENT, Design Size Maximum Flow Fraction during Reheat [], 0.30000
 Component Sizing Information, AirTerminal:SingleDuct:VAV:Reheat, DINING_FLR_6 VAV BOX COMPONENT, Design Size Maximum Reheat Water Flow Rate [m3/s], 6.77965E-004
 Component Sizing Information, AirTerminal:SingleDuct:VAV:Reheat, DINING_FLR_6 VAV BOX COMPONENT, Design Size Reheat Coil Sizing Air Volume Flow Rate [m3/s], 1.28525
 Component Sizing Information, AirTerminal:SingleDuct:VAV:Reheat, DINING_FLR_6 VAV BOX COMPONENT, Design Size Reheat Coil Sizing Inlet Air Temperature [C], 16.70000
 Component Sizing Information, AirTerminal:SingleDuct:VAV:Reheat, DINING_FLR_6 VAV BOX COMPONENT, Design Size Reheat Coil Sizing Inlet Air Humidity Ratio [kgWater/kgDryAir], 8.00000E-003
 Component Sizing Information, Coil:Heating:Water, DINING_FLR_6 VAV BOX REHEAT COIL, Design Size Rated Capacity [W], 31490.61394
 Component Sizing Information, Coil:Heating:Water, DINING_FLR_6 VAV BOX REHEAT COIL, Design Size Maximum Water Flow Rate [m3/s], 6.77965E-004
 Component Sizing Information, Coil:Heating:Water, DINING_FLR_6 VAV BOX REHEAT COIL, Design Size U-Factor Times Area Value [W/K], 644.97488
Water Heating Coil Capacity Information,Coil:Heating:Water,DINING_FLR_6 VAV BOX REHEAT COIL,31053.19
 Component Sizing Information, AirTerminal:SingleDuct:VAV:Reheat, KITCHEN_FLR_6 VAV BOX COMPONENT, Design Size Maximum Air Flow Rate [m3/s], 1.85710
 Component Sizing Information, AirTerminal:SingleDuct:VAV:Reheat, KITCHEN_FLR_6 VAV BOX COMPONENT, Design Size Constant Minimum Air Flow Fraction, 0.20000
 Component Sizing Information, AirTerminal:SingleDuct:VAV:Reheat, KITCHEN_FLR_6 VAV BOX COMPONENT, User-Specified Constant Minimum Air Flow Fraction, 0.30000
 Component Sizing Information, AirTerminal:SingleDuct:VAV:Reheat, KITCHEN_FLR_6 VAV BOX COMPONENT, Design Size Minimum Air Flow Rate [m3/s], 0.55713
 Component Sizing Information, AirTerminal:SingleDuct:VAV:Reheat, KITCHEN_FLR_6 VAV BOX COMPONENT, Design Size Maximum Flow per Zone Floor Area during Reheat [m3/s-m2], 5.39310E-003
 Component Sizing Information, AirTerminal:SingleDuct:VAV:Reheat, KITCHEN_FLR_6 VAV BOX COMPONENT, Design Size Maximum Flow Fraction during Reheat [], 0.30000
 Component Sizing Information, AirTerminal:SingleDuct:VAV:Reheat, KITCHEN_FLR_6 VAV BOX COMPONENT, Design Size Maximum Reheat Water Flow Rate [m3/s], 1.69552E-004
 Component Sizing Information, AirTerminal:SingleDuct:VAV:Reheat, KITCHEN_FLR_6 VAV BOX COMPONENT, Design Size Reheat Coil Sizing Air Volume Flow Rate [m3/s], 0.55713
 Component Sizing Information, AirTerminal:SingleDuct:VAV:Reheat, KITCHEN_FLR_6 VAV BOX COMPONENT, Design Size Reheat Coil Sizing Inlet Air Temperature [C], 16.70000
 Component Sizing Information, AirTerminal:SingleDuct:VAV:Reheat, KITCHEN_FLR_6 VAV BOX COMPONENT, Design Size Reheat Coil Sizing Inlet Air Humidity Ratio [kgWater/kgDryAir], 8.00000E-003
 Component Sizing Information, Coil:Heating:Water, KITCHEN_FLR_6 VAV BOX REHEAT COIL, Design Size Rated Capacity [W], 7875.46321
 Component Sizing Information, Coil:Heating:Water, KITCHEN_FLR_6 VAV BOX REHEAT COIL, Design Size Maximum Water Flow Rate [m3/s], 1.69552E-004
 Component Sizing Information, Coil:Heating:Water, KITCHEN_FLR_6 VAV BOX REHEAT COIL, Design Size U-Factor Times Area Value [W/K], 150.26823
Water Heating Coil Capacity Information,Coil:Heating:Water,KITCHEN_FLR_6 VAV BOX REHEAT COIL,7770.92
 Component Sizing Information, AirTerminal:SingleDuct:VAV:Reheat, LAUNDRY_FLR_1 VAV BOX COMPONENT, Design Size Maximum Air Flow Rate [m3/s], 5.01555
 Component Sizing Information, AirTerminal:SingleDuct:VAV:Reheat, LAUNDRY_FLR_1 VAV BOX COMPONENT, Design Size Constant Minimum Air Flow Fraction, 0.20000
 Component Sizing Information, AirTerminal:SingleDuct:VAV:Reheat, LAUNDRY_FLR_1 VAV BOX COMPONENT, User-Specified Constant Minimum Air Flow Fraction, 0.30000
 Component Sizing Information, AirTerminal:SingleDuct:VAV:Reheat, LAUNDRY_FLR_1 VAV BOX COMPONENT, Design Size Minimum Air Flow Rate [m3/s], 1.50466
 Component Sizing Information, AirTerminal:SingleDuct:VAV:Reheat, LAUNDRY_FLR_1 VAV BOX COMPONENT, Design Size Maximum Flow per Zone Floor Area during Reheat [m3/s-m2], 1.92808E-002
 Component Sizing Information, AirTerminal:SingleDuct:VAV:Reheat, LAUNDRY_FLR_1 VAV BOX COMPONENT, Design Size Maximum Flow Fraction during Reheat [], 0.30000
 Component Sizing Information, AirTerminal:SingleDuct:VAV:Reheat, LAUNDRY_FLR_1 VAV BOX COMPONENT, Design Size Maximum Reheat Water Flow Rate [m3/s], 3.04085E-004
 Component Sizing Information, AirTerminal:SingleDuct:VAV:Reheat, LAUNDRY_FLR_1 VAV BOX COMPONENT, Design Size Reheat Coil Sizing Air Volume Flow Rate [m3/s], 1.50466
 Component Sizing Information, AirTerminal:SingleDuct:VAV:Reheat, LAUNDRY_FLR_1 VAV BOX COMPONENT, Design Size Reheat Coil Sizing Inlet Air Temperature [C], 16.70000
 Component Sizing Information, AirTerminal:SingleDuct:VAV:Reheat, LAUNDRY_FLR_1 VAV BOX COMPONENT, Design Size Reheat Coil Sizing Inlet Air Humidity Ratio [kgWater/kgDryAir], 8.00000E-003
 Component Sizing Information, Coil:Heating:Water, LAUNDRY_FLR_1 VAV BOX REHEAT COIL, Design Size Rated Capacity [W], 14124.35024
 Component Sizing Information, Coil:Heating:Water, LAUNDRY_FLR_1 VAV BOX REHEAT COIL, Design Size Maximum Water Flow Rate [m3/s], 3.04085E-004
 Component Sizing Information, Coil:Heating:Water, LAUNDRY_FLR_1 VAV BOX REHEAT COIL, Design Size U-Factor Times Area Value [W/K], 255.97482
Water Heating Coil Capacity Information,Coil:Heating:Water,LAUNDRY_FLR_1 VAV BOX REHEAT COIL,13922.35
 Component Sizing Information, AirTerminal:SingleDuct:VAV:Reheat, LOBBY_FLR_1 VAV BOX COMPONENT, Design Size Maximum Air Flow Rate [m3/s], 9.11098
 Component Sizing Information, AirTerminal:SingleDuct:VAV:Reheat, LOBBY_FLR_1 VAV BOX COMPONENT, Design Size Constant Minimum Air Flow Fraction, 0.20000
 Component Sizing Information, AirTerminal:SingleDuct:VAV:Reheat, LOBBY_FLR_1 VAV BOX COMPONENT, User-Specified Constant Minimum Air Flow Fraction, 0.30000
 Component Sizing Information, AirTerminal:SingleDuct:VAV:Reheat, LOBBY_FLR_1 VAV BOX COMPONENT, Design Size Minimum Air Flow Rate [m3/s], 2.73329
 Component Sizing Information, AirTerminal:SingleDuct:VAV:Reheat, LOBBY_FLR_1 VAV BOX COMPONENT, Design Size Maximum Flow per Zone Floor Area during Reheat [m3/s-m2], 2.08938E-003
 Component Sizing Information, AirTerminal:SingleDuct:VAV:Reheat, LOBBY_FLR_1 VAV BOX COMPONENT, Design Size Maximum Flow Fraction during Reheat [], 0.30000
 Component Sizing Information, AirTerminal:SingleDuct:VAV:Reheat, LOBBY_FLR_1 VAV BOX COMPONENT, Design Size Maximum Reheat Water Flow Rate [m3/s], 1.51937E-003
 Component Sizing Information, AirTerminal:SingleDuct:VAV:Reheat, LOBBY_FLR_1 VAV BOX COMPONENT, Design Size Reheat Coil Sizing Air Volume Flow Rate [m3/s], 2.73329
 Component Sizing Information, AirTerminal:SingleDuct:VAV:Reheat, LOBBY_FLR_1 VAV BOX COMPONENT, Design Size Reheat Coil Sizing Inlet Air Temperature [C], 16.70000
 Component Sizing Information, AirTerminal:SingleDuct:VAV:Reheat, LOBBY_FLR_1 VAV BOX COMPONENT, Design Size Reheat Coil Sizing Inlet Air Humidity Ratio [kgWater/kgDryAir], 8.00000E-003
 Component Sizing Information, Coil:Heating:Water, LOBBY_FLR_1 VAV BOX REHEAT COIL, Design Size Rated Capacity [W], 70572.62897
 Component Sizing Information, Coil:Heating:Water, LOBBY_FLR_1 VAV BOX REHEAT COIL, Design Size Maximum Water Flow Rate [m3/s], 1.51937E-003
 Component Sizing Information, Coil:Heating:Water, LOBBY_FLR_1 VAV BOX REHEAT COIL, Design Size U-Factor Times Area Value [W/K], 1460.82413
Water Heating Coil Capacity Information,Coil:Heating:Water,LOBBY_FLR_1 VAV BOX REHEAT COIL,69588.52
 Component Sizing Information, AirTerminal:SingleDuct:VAV:Reheat, MECH_FLR_1 VAV BOX COMPONENT, Design Size Maximum Air Flow Rate [m3/s], 0.10289
 Component Sizing Information, AirTerminal:SingleDuct:VAV:Reheat, MECH_FLR_1 VAV BOX COMPONENT, Design Size Constant Minimum Air Flow Fraction, 1.21634
 Component Sizing Information, AirTerminal:SingleDuct:VAV:Reheat, MECH_FLR_1 VAV BOX COMPONENT, User-Specified Constant Minimum Air Flow Fraction, 0.30000
 Component Sizing Information, AirTerminal:SingleDuct:VAV:Reheat, MECH_FLR_1 VAV BOX COMPONENT, Design Size Minimum Air Flow Rate [m3/s], 3.08680E-002
 Component Sizing Information, AirTerminal:SingleDuct:VAV:Reheat, MECH_FLR_1 VAV BOX COMPONENT, Design Size Maximum Flow per Zone Floor Area during Reheat [m3/s-m2], 1.87941E-004
 Component Sizing Information, AirTerminal:SingleDuct:VAV:Reheat, MECH_FLR_1 VAV BOX COMPONENT, Design Size Maximum Flow Fraction during Reheat [], 0.30000
 Component Sizing Information, AirTerminal:SingleDuct:VAV:Reheat, MECH_FLR_1 VAV BOX COMPONENT, Design Size Maximum Reheat Water Flow Rate [m3/s], 0.00000
 Component Sizing Information, AirTerminal:SingleDuct:VAV:Reheat, MECH_FLR_1 VAV BOX COMPONENT, Design Size Reheat Coil Sizing Air Volume Flow Rate [m3/s], 3.08680E-002
 Component Sizing Information, AirTerminal:SingleDuct:VAV:Reheat, MECH_FLR_1 VAV BOX COMPONENT, Design Size Reheat Coil Sizing Inlet Air Temperature [C], 16.70000
 Component Sizing Information, AirTerminal:SingleDuct:VAV:Reheat, MECH_FLR_1 VAV BOX COMPONENT, Design Size Reheat Coil Sizing Inlet Air Humidity Ratio [kgWater/kgDryAir], 8.00000E-003
 Component Sizing Information, Coil:Heating:Water, MECH_FLR_1 VAV BOX REHEAT COIL, Design Size Rated Capacity [W], 0.00000
 Component Sizing Information, Coil:Heating:Water, MECH_FLR_1 VAV BOX REHEAT COIL, Design Size Maximum Water Flow Rate [m3/s], 0.00000
 Component Sizing Information, Coil:Heating:Water, MECH_FLR_1 VAV BOX REHEAT COIL, Design Size U-Factor Times Area Value [W/K], 1.00000
Water Heating Coil Capacity Information,Coil:Heating:Water,MECH_FLR_1 VAV BOX REHEAT COIL,0.00
 Component Sizing Information, AirTerminal:SingleDuct:VAV:Reheat, RETAIL_1_FLR_1 VAV BOX COMPONENT, Design Size Maximum Air Flow Rate [m3/s], 0.50769
 Component Sizing Information, AirTerminal:SingleDuct:VAV:Reheat, RETAIL_1_FLR_1 VAV BOX COMPONENT, Design Size Constant Minimum Air Flow Fraction, 0.20000
 Component Sizing Information, AirTerminal:SingleDuct:VAV:Reheat, RETAIL_1_FLR_1 VAV BOX COMPONENT, User-Specified Constant Minimum Air Flow Fraction, 0.30000
 Component Sizing Information, AirTerminal:SingleDuct:VAV:Reheat, RETAIL_1_FLR_1 VAV BOX COMPONENT, Design Size Minimum Air Flow Rate [m3/s], 0.15231
 Component Sizing Information, AirTerminal:SingleDuct:VAV:Reheat, RETAIL_1_FLR_1 VAV BOX COMPONENT, Design Size Maximum Flow per Zone Floor Area during Reheat [m3/s-m2], 2.27083E-003
 Component Sizing Information, AirTerminal:SingleDuct:VAV:Reheat, RETAIL_1_FLR_1 VAV BOX COMPONENT, Design Size Maximum Flow Fraction during Reheat [], 0.30000
 Component Sizing Information, AirTerminal:SingleDuct:VAV:Reheat, RETAIL_1_FLR_1 VAV BOX COMPONENT, Design Size Maximum Reheat Water Flow Rate [m3/s], 2.00000E-004
 Component Sizing Information, AirTerminal:SingleDuct:VAV:Reheat, RETAIL_1_FLR_1 VAV BOX COMPONENT, Design Size Reheat Coil Sizing Air Volume Flow Rate [m3/s], 0.31524
 Component Sizing Information, AirTerminal:SingleDuct:VAV:Reheat, RETAIL_1_FLR_1 VAV BOX COMPONENT, Design Size Reheat Coil Sizing Inlet Air Temperature [C], 16.70000
 Component Sizing Information, AirTerminal:SingleDuct:VAV:Reheat, RETAIL_1_FLR_1 VAV BOX COMPONENT, Design Size Reheat Coil Sizing Inlet Air Humidity Ratio [kgWater/kgDryAir], 8.00000E-003
 Component Sizing Information, Coil:Heating:Water, RETAIL_1_FLR_1 VAV BOX REHEAT COIL, Design Size Rated Capacity [W], 9289.74741
 Component Sizing Information, Coil:Heating:Water, RETAIL_1_FLR_1 VAV BOX REHEAT COIL, Design Size Maximum Water Flow Rate [m3/s], 2.00000E-004
 Component Sizing Information, Coil:Heating:Water, RETAIL_1_FLR_1 VAV BOX REHEAT COIL, Design Size U-Factor Times Area Value [W/K], 198.34235
Water Heating Coil Capacity Information,Coil:Heating:Water,RETAIL_1_FLR_1 VAV BOX REHEAT COIL,7477.92
 Component Sizing Information, AirTerminal:SingleDuct:VAV:Reheat, RETAIL_2_FLR_1 VAV BOX COMPONENT, Design Size Maximum Air Flow Rate [m3/s], 0.58582
 Component Sizing Information, AirTerminal:SingleDuct:VAV:Reheat, RETAIL_2_FLR_1 VAV BOX COMPONENT, Design Size Constant Minimum Air Flow Fraction, 0.20000
 Component Sizing Information, AirTerminal:SingleDuct:VAV:Reheat, RETAIL_2_FLR_1 VAV BOX COMPONENT, User-Specified Constant Minimum Air Flow Fraction, 0.30000
 Component Sizing Information, AirTerminal:SingleDuct:VAV:Reheat, RETAIL_2_FLR_1 VAV BOX COMPONENT, Design Size Minimum Air Flow Rate [m3/s], 0.17574
 Component Sizing Information, AirTerminal:SingleDuct:VAV:Reheat, RETAIL_2_FLR_1 VAV BOX COMPONENT, Design Size Maximum Flow per Zone Floor Area during Reheat [m3/s-m2], 2.26274E-003
 Component Sizing Information, AirTerminal:SingleDuct:VAV:Reheat, RETAIL_2_FLR_1 VAV BOX COMPONENT, Design Size Maximum Flow Fraction during Reheat [], 0.30000
 Component Sizing Information, AirTerminal:SingleDuct:VAV:Reheat, RETAIL_2_FLR_1 VAV BOX COMPONENT, Design Size Maximum Reheat Water Flow Rate [m3/s], 8.80577E-005
 Component Sizing Information, AirTerminal:SingleDuct:VAV:Reheat, RETAIL_2_FLR_1 VAV BOX COMPONENT, Design Size Reheat Coil Sizing Air Volume Flow Rate [m3/s], 0.17574
 Component Sizing Information, AirTerminal:SingleDuct:VAV:Reheat, RETAIL_2_FLR_1 VAV BOX COMPONENT, Design Size Reheat Coil Sizing Inlet Air Temperature [C], 16.70000
 Component Sizing Information, AirTerminal:SingleDuct:VAV:Reheat, RETAIL_2_FLR_1 VAV BOX COMPONENT, Design Size Reheat Coil Sizing Inlet Air Humidity Ratio [kgWater/kgDryAir], 8.00000E-003
 Component Sizing Information, Coil:Heating:Water, RETAIL_2_FLR_1 VAV BOX REHEAT COIL, Design Size Rated Capacity [W], 4090.16976
 Component Sizing Information, Coil:Heating:Water, RETAIL_2_FLR_1 VAV BOX REHEAT COIL, Design Size Maximum Water Flow Rate [m3/s], 8.80577E-005
 Component Sizing Information, Coil:Heating:Water, RETAIL_2_FLR_1 VAV BOX REHEAT COIL, Design Size U-Factor Times Area Value [W/K], 82.98364
Water Heating Coil Capacity Information,Coil:Heating:Water,RETAIL_2_FLR_1 VAV BOX REHEAT COIL,4033.89
 Component Sizing Information, AirTerminal:SingleDuct:Uncontrolled, ROOM_1_FLR_3 DIRECT AIR, Design Size Maximum Air Flow Rate [m3/s], 5.66400E-002
 Component Sizing Information, AirTerminal:SingleDuct:Uncontrolled, ROOM_1_FLR_3 DIRECT AIR, User-Specified Maximum Air Flow Rate [m3/s], 1.41600E-002
 Component Sizing Information, ZoneHVAC:FourPipeFanCoil, ROOM_1_FLR_3 FAN COIL, Design Size Maximum Supply Air Flow Rate [m3/s], 1.16097
 Component Sizing Information, Fan:ConstantVolume, ROOM_1_FLR_3 FAN COILFAN, Design Size Maximum Flow Rate [m3/s], 1.16097
 Component Sizing Information, ZoneHVAC:FourPipeFanCoil, ROOM_1_FLR_3 FAN COIL, Design Size Maximum Hot Water Flow [m3/s], 2.16361E-004
 Component Sizing Information, ZoneHVAC:FourPipeFanCoil, ROOM_1_FLR_3 FAN COIL, Design Size Maximum Cold Water Flow [m3/s], 6.38471E-004
 Component Sizing Information, Coil:Cooling:Water, ROOM_1_FLR_3 FAN COILCOOL COIL, Design Size Design Water Flow Rate [m3/s], 6.38471E-004
 Component Sizing Information, Coil:Cooling:Water, ROOM_1_FLR_3 FAN COILCOOL COIL, Design Size Design Air Flow Rate [m3/s], 1.16097
 Component Sizing Information, Coil:Cooling:Water, ROOM_1_FLR_3 FAN COILCOOL COIL, User-Specified Design Air Flow Rate [m3/s], 1.16097
 Component Sizing Information, Coil:Cooling:Water, ROOM_1_FLR_3 FAN COILCOOL COIL, Design Size Design Inlet Air Temperature [C], 23.99757
 Component Sizing Information, Coil:Cooling:Water, ROOM_1_FLR_3 FAN COILCOOL COIL, Design Size Design Inlet Water Temperature [C], 6.67000
 Component Sizing Information, Coil:Cooling:Water, ROOM_1_FLR_3 FAN COILCOOL COIL, Design Size Design Inlet Air Humidity Ratio, 8.74022E-003
 Component Sizing Information, Coil:Cooling:Water, ROOM_1_FLR_3 FAN COILCOOL COIL, Design Size Design Outlet Air Temperature [C], 12.00000
 Component Sizing Information, Coil:Cooling:Water, ROOM_1_FLR_3 FAN COILCOOL COIL, Design Size Design Outlet Air Humidity Ratio, 8.50000E-003
! <Water Cooling Coil Capacity Information>,Component Type,Name,Nominal Total Capacity {W},Nominal Sensible Capacity {W},Nominal Latent Capacity {W},Nominal Sensible Heat Ratio, Nominal Coil UA Value {W/C}, Nominal Coil Surface Area {m2}
Water Cooling Coil Capacity Information,Coil:Cooling:Water,ROOM_1_FLR_3 FAN COILCOOL COIL,23747.29,17726.26,6021.03,0.75,2710.24,27.49
 Component Sizing Information, Coil:Heating:Water, ROOM_1_FLR_3 FAN COILHEAT COIL, Design Size Rated Capacity [W], 10049.69337
 Component Sizing Information, Coil:Heating:Water, ROOM_1_FLR_3 FAN COILHEAT COIL, Design Size Maximum Water Flow Rate [m3/s], 2.16361E-004
 Component Sizing Information, Coil:Heating:Water, ROOM_1_FLR_3 FAN COILHEAT COIL, Design Size U-Factor Times Area Value [W/K], 223.98950
[...]
 Component Sizing Information, ZoneHVAC:FourPipeFanCoil, ROOM_6_FLR_3 FAN COIL, Design Size Maximum Supply Air Flow Rate [m3/s], 1.09969
 Component Sizing Information, Fan:ConstantVolume, ROOM_6_FLR_3 FAN COILFAN, Design Size Maximum Flow Rate [m3/s], 1.09969
 Component Sizing Information, ZoneHVAC:FourPipeFanCoil, ROOM_6_FLR_3 FAN COIL, Design Size Maximum Hot Water Flow [m3/s], 2.16065E-004
 Component Sizing Information, ZoneHVAC:FourPipeFanCoil, ROOM_6_FLR_3 FAN COIL, Design Size Maximum Cold Water Flow [m3/s], 5.66770E-004
 Component Sizing Information, Coil:Cooling:Water, ROOM_6_FLR_3 FAN COILCOOL COIL, Design Size Design Water Flow Rate [m3/s], 5.66770E-004
 Component Sizing Information, Coil:Cooling:Water, ROOM_6_FLR_3 FAN COILCOOL COIL, Design Size Design Air Flow Rate [m3/s], 1.09969
 Component Sizing Information, Coil:Cooling:Water, ROOM_6_FLR_3 FAN COILCOOL COIL, User-Specified Design Air Flow Rate [m3/s], 1.09969
 Component Sizing Information, Coil:Cooling:Water, ROOM_6_FLR_3 FAN COILCOOL COIL, Design Size Design Inlet Air Temperature [C], 23.99766
 Component Sizing Information, Coil:Cooling:Water, ROOM_6_FLR_3 FAN COILCOOL COIL, Design Size Design Inlet Water Temperature [C], 6.67000
 Component Sizing Information, Coil:Cooling:Water, ROOM_6_FLR_3 FAN COILCOOL COIL, Design Size Design Inlet Air Humidity Ratio, 8.74220E-003
 Component Sizing Information, Coil:Cooling:Water, ROOM_6_FLR_3 FAN COILCOOL COIL, Design Size Design Outlet Air Temperature [C], 12.83000
 Component Sizing Information, Coil:Cooling:Water, ROOM_6_FLR_3 FAN COILCOOL COIL, Design Size Design Outlet Air Humidity Ratio, 8.48650E-003
Water Cooling Coil Capacity Information,Coil:Cooling:Water,ROOM_6_FLR_3 FAN COILCOOL COIL,21060.04,15995.00,5065.04,0.76,2281.15,23.14
 Component Sizing Information, Coil:Heating:Water, ROOM_6_FLR_3 FAN COILHEAT COIL, Design Size Rated Capacity [W], 10035.93209
 Component Sizing Information, Coil:Heating:Water, ROOM_6_FLR_3 FAN COILHEAT COIL, Design Size Maximum Water Flow Rate [m3/s], 2.16065E-004
 Component Sizing Information, Coil:Heating:Water, ROOM_6_FLR_3 FAN COILHEAT COIL, Design Size U-Factor Times Area Value [W/K], 223.68281
Water Heating Coil Capacity Information,Coil:Heating:Water,ROOM_6_FLR_3 FAN COILHEAT COIL,10593.78
 Component Sizing Information, AirTerminal:SingleDuct:VAV:Reheat, STORAGE_FLR_1 VAV BOX COMPONENT, Design Size Maximum Air Flow Rate [m3/s], 7.20170E-002
 Component Sizing Information, AirTerminal:SingleDuct:VAV:Reheat, STORAGE_FLR_1 VAV BOX COMPONENT, Design Size Constant Minimum Air Flow Fraction, 1.00263
 Component Sizing Information, AirTerminal:SingleDuct:VAV:Reheat, STORAGE_FLR_1 VAV BOX COMPONENT, User-Specified Constant Minimum Air Flow Fraction, 0.30000
 Component Sizing Information, AirTerminal:SingleDuct:VAV:Reheat, STORAGE_FLR_1 VAV BOX COMPONENT, Design Size Minimum Air Flow Rate [m3/s], 2.16051E-002
 Component Sizing Information, AirTerminal:SingleDuct:VAV:Reheat, STORAGE_FLR_1 VAV BOX COMPONENT, Design Size Maximum Flow per Zone Floor Area during Reheat [m3/s-m2], 2.28000E-004
 Component Sizing Information, AirTerminal:SingleDuct:VAV:Reheat, STORAGE_FLR_1 VAV BOX COMPONENT, Design Size Maximum Flow Fraction during Reheat [], 0.30000
 Component Sizing Information, AirTerminal:SingleDuct:VAV:Reheat, STORAGE_FLR_1 VAV BOX COMPONENT, Design Size Maximum Reheat Water Flow Rate [m3/s], 0.00000
 Component Sizing Information, AirTerminal:SingleDuct:VAV:Reheat, STORAGE_FLR_1 VAV BOX COMPONENT, Design Size Reheat Coil Sizing Air Volume Flow Rate [m3/s], 2.16051E-002
 Component Sizing Information, AirTerminal:SingleDuct:VAV:Reheat, STORAGE_FLR_1 VAV BOX COMPONENT, Design Size Reheat Coil Sizing Inlet Air Temperature [C], 16.70000
 Component Sizing Information, AirTerminal:SingleDuct:VAV:Reheat, STORAGE_FLR_1 VAV BOX COMPONENT, Design Size Reheat Coil Sizing Inlet Air Humidity Ratio [kgWater/kgDryAir], 8.00000E-003
 Component Sizing Information, Coil:Heating:Water, STORAGE_FLR_1 VAV BOX REHEAT COIL, Design Size Rated Capacity [W], 0.00000
 Component Sizing Information, Coil:Heating:Water, STORAGE_FLR_1 VAV BOX REHEAT COIL, Design Size Maximum Water Flow Rate [m3/s], 0.00000
 Component Sizing Information, Coil:Heating:Water, STORAGE_FLR_1 VAV BOX REHEAT COIL, Design Size U-Factor Times Area Value [W/K], 1.00000
Water Heating Coil Capacity Information,Coil:Heating:Water,STORAGE_FLR_1 VAV BOX REHEAT COIL,0.00
 Component Sizing Information, AirLoopHVAC, VAV WITH REHEAT, Design Supply Air Flow Rate [m3/s], 32.87838
 Component Sizing Information, Coil:Cooling:Water, FLR_3_DOAS_COOLC, Design Size Design Coil Load [W], 127759.62974
 Component Sizing Information, Coil:Cooling:Water, FLR_3_DOAS_COOLC, Design Size Design Water Flow Rate [m3/s], 4.56320E-003
 Component Sizing Information, Coil:Cooling:Water, FLR_3_DOAS_COOLC, Design Size Design Air Flow Rate [m3/s], 2.37888
 Component Sizing Information, Coil:Cooling:Water, FLR_3_DOAS_COOLC, Design Size Design Inlet Air Temperature [C], 30.66960
 Component Sizing Information, Coil:Cooling:Water, FLR_3_DOAS_COOLC, Design Size Design Inlet Water Temperature [C], 6.67000
 Component Sizing Information, Coil:Cooling:Water, FLR_3_DOAS_COOLC, Design Size Design Outlet Air Temperature [C], 12.82000
 Component Sizing Information, Coil:Cooling:Water, FLR_3_DOAS_COOLC, Design Size Design Inlet Air Humidity Ratio, 1.85424E-002
 Component Sizing Information, Coil:Cooling:Water, FLR_3_DOAS_COOLC, Design Size Design Outlet Air Humidity Ratio, 8.33380E-003
Water Cooling Coil Capacity Information,Coil:Cooling:Water,FLR_3_DOAS_COOLC,80043.17,50897.66,29145.51,0.64,10042.84,101.86
 Component Sizing Information, Coil:Heating:Water, FLR_3_DOAS_HEATC, Design Size Rated Capacity [W], 83021.76932
 Component Sizing Information, Coil:Heating:Water, FLR_3_DOAS_HEATC, Design Size Maximum Water Flow Rate [m3/s], 1.78738E-003
 Component Sizing Information, Coil:Heating:Water, FLR_3_DOAS_HEATC, Design Size U-Factor Times Area Value [W/K], 1173.00195
Water Heating Coil Capacity Information,Coil:Heating:Water,FLR_3_DOAS_HEATC,58587.38
 Component Sizing Information, Fan:ConstantVolume, FLR_3_DOAS_FAN, Design Size Maximum Flow Rate [m3/s], 2.37888
 Component Sizing Information, Controller:WaterCoil, FLR_3_DOAS_COOLC_CONTROLLER, Maximum Actuated Flow [m3/s], 4.56320E-003
 Component Sizing Information, Controller:WaterCoil, FLR_3_DOAS_COOLC_CONTROLLER, Controller Convergence Tolerance, 1.04354E-004
 Component Sizing Information, Controller:WaterCoil, FLR_3_DOAS_HEATC_CONTROLLER, Maximum Actuated Flow [m3/s], 1.78738E-003
 Component Sizing Information, Coil:Cooling:Water, FLR_6_DOAS_COOLC, Design Size Design Coil Load [W], 8295.96099
 Component Sizing Information, Coil:Cooling:Water, FLR_6_DOAS_COOLC, Design Size Design Water Flow Rate [m3/s], 2.96308E-004
 Component Sizing Information, Coil:Cooling:Water, FLR_6_DOAS_COOLC, Design Size Design Air Flow Rate [m3/s], 0.15576
 Component Sizing Information, Coil:Cooling:Water, FLR_6_DOAS_COOLC, Design Size Design Inlet Air Temperature [C], 30.25914
 Component Sizing Information, Coil:Cooling:Water, FLR_6_DOAS_COOLC, Design Size Design Inlet Water Temperature [C], 6.67000
 Component Sizing Information, Coil:Cooling:Water, FLR_6_DOAS_COOLC, Design Size Design Outlet Air Temperature [C], 12.82000
 Component Sizing Information, Coil:Cooling:Water, FLR_6_DOAS_COOLC, Design Size Design Inlet Air Humidity Ratio, 1.85424E-002
 Component Sizing Information, Coil:Cooling:Water, FLR_6_DOAS_COOLC, Design Size Design Outlet Air Humidity Ratio, 8.33380E-003
Water Cooling Coil Capacity Information,Coil:Cooling:Water,FLR_6_DOAS_COOLC,5238.64,3331.65,1907.00,0.64,658.98,6.68
 Component Sizing Information, Coil:Heating:Water, FLR_6_DOAS_HEATC, Design Size Rated Capacity [W], 5435.94918
 Component Sizing Information, Coil:Heating:Water, FLR_6_DOAS_HEATC, Design Size Maximum Water Flow Rate [m3/s], 1.17031E-004
 Component Sizing Information, Coil:Heating:Water, FLR_6_DOAS_HEATC, Design Size U-Factor Times Area Value [W/K], 76.80370
Water Heating Coil Capacity Information,Coil:Heating:Water,FLR_6_DOAS_HEATC,3836.08
 Component Sizing Information, Fan:ConstantVolume, FLR_6_DOAS_FAN, Design Size Maximum Flow Rate [m3/s], 0.15576
 Component Sizing Information, Controller:WaterCoil, FLR_6_DOAS_COOLC_CONTROLLER, Maximum Actuated Flow [m3/s], 2.96308E-004
 Component Sizing Information, Controller:WaterCoil, FLR_6_DOAS_COOLC_CONTROLLER, Controller Convergence Tolerance, 1.00000E-003
 Component Sizing Information, Controller:WaterCoil, FLR_6_DOAS_HEATC_CONTROLLER, Maximum Actuated Flow [m3/s], 1.17031E-004
 Component Sizing Information, Controller:OutdoorAir, VAV WITH REHEAT_OA_CONTROLLER, Maximum Outdoor Air Flow Rate [m3/s], 32.87838
 Component Sizing Information, Controller:OutdoorAir, VAV WITH REHEAT_OA_CONTROLLER, Minimum Outdoor Air Flow Rate [m3/s], 11.95143
 Component Sizing Information, Coil:Cooling:Water, VAV WITH REHEAT_COOLC, Design Size Design Coil Load [W], 954339.88686
 Component Sizing Information, Coil:Cooling:Water, VAV WITH REHEAT_COOLC, Design Size Design Water Flow Rate [m3/s], 3.40862E-002
 Component Sizing Information, Coil:Cooling:Water, VAV WITH REHEAT_COOLC, Design Size Design Air Flow Rate [m3/s], 32.87838
 Component Sizing Information, Coil:Cooling:Water, VAV WITH REHEAT_COOLC, Design Size Design Inlet Air Temperature [C], 24.37737
 Component Sizing Information, Coil:Cooling:Water, VAV WITH REHEAT_COOLC, Design Size Design Inlet Water Temperature [C], 6.67000
 Component Sizing Information, Coil:Cooling:Water, VAV WITH REHEAT_COOLC, Design Size Design Outlet Air Temperature [C], 12.80000
 Component Sizing Information, Coil:Cooling:Water, VAV WITH REHEAT_COOLC, Design Size Design Inlet Air Humidity Ratio, 1.28347E-002
 Component Sizing Information, Coil:Cooling:Water, VAV WITH REHEAT_COOLC, Design Size Design Outlet Air Humidity Ratio, 8.32274E-003
Water Cooling Coil Capacity Information,Coil:Cooling:Water,VAV WITH REHEAT_COOLC,941120.24,627494.96,313625.28,0.67,115468.77,1171.15
 Component Sizing Information, Coil:Heating:Water, VAV WITH REHEAT_HEATC, Design Size Rated Capacity [W], 328800.77319
 Component Sizing Information, Coil:Heating:Water, VAV WITH REHEAT_HEATC, Design Size Maximum Water Flow Rate [m3/s], 7.07878E-003
 Component Sizing Information, Coil:Heating:Water, VAV WITH REHEAT_HEATC, Design Size U-Factor Times Area Value [W/K], 4603.77623
Water Heating Coil Capacity Information,Coil:Heating:Water,VAV WITH REHEAT_HEATC,232029.44
 Component Sizing Information, Fan:VariableVolume, VAV WITH REHEAT_FAN, Design Size Maximum Flow Rate [m3/s], 32.87838
 Component Sizing Information, Controller:WaterCoil, VAV WITH REHEAT_COOLC_CONTROLLER, Maximum Actuated Flow [m3/s], 3.40862E-002
 Component Sizing Information, Controller:WaterCoil, VAV WITH REHEAT_COOLC_CONTROLLER, Controller Convergence Tolerance, 1.39702E-005
 Component Sizing Information, Controller:WaterCoil, VAV WITH REHEAT_HEATC_CONTROLLER, Maximum Actuated Flow [m3/s], 7.07878E-003
Water Heater Information,WaterHeater:Mixed,SWHSYS1 WATER HEATER,2.0000,845000.0,0.346,0.6782
 Component Sizing Information, PlantLoop, COOLSYS1, Maximum Loop Flow Rate [m3/s], 2.60318E-002
 Component Sizing Information, PlantLoop, COOLSYS1, Plant Loop Volume [m3], 3.12381
 Component Sizing Information, Pump:VariableSpeed, COOLSYS1 PUMP, Design Flow Rate [m3/s], 2.60318E-002
 Component Sizing Information, Pump:VariableSpeed, COOLSYS1 PUMP, Design Power Consumption [W], 6650.78879
 Component Sizing Information, Chiller:Electric:EIR, COOLSYS1 CHILLER 1, Design Size Reference Chilled Water Flow Rate [m3/s], 1.30159E-002
 Component Sizing Information, Chiller:Electric:EIR, COOLSYS1 CHILLER 1, Design Size Reference Capacity [W], 364410.40982
 Component Sizing Information, Chiller:Electric:EIR, COOLSYS1 CHILLER 1, Design Size Reference Condenser Fluid Flow Rate  [m3/s], 41.54279
! <Chiller Standard Rating Information>, Component Type, Component Name, IPLV in SI Units {W/W}, IPLV in IP Units {Btu/W-h}
 Chiller Standard Rating Information, Chiller:Electric:EIR, COOLSYS1 CHILLER 1, 7.28, 24.83
 Component Sizing Information, Chiller:Electric:EIR, COOLSYS1 CHILLER 2, Design Size Reference Chilled Water Flow Rate [m3/s], 1.30159E-002
 Component Sizing Information, Chiller:Electric:EIR, COOLSYS1 CHILLER 2, Design Size Reference Capacity [W], 364410.40982
 Component Sizing Information, Chiller:Electric:EIR, COOLSYS1 CHILLER 2, Design Size Reference Condenser Fluid Flow Rate  [m3/s], 41.54279
 Chiller Standard Rating Information, Chiller:Electric:EIR, COOLSYS1 CHILLER 2, 7.28, 24.83
 Component Sizing Information, PlantLoop, HEATSYS1, Maximum Loop Flow Rate [m3/s], 3.64477E-002
 Component Sizing Information, PlantLoop, HEATSYS1, Plant Loop Volume [m3], 4.37373
 Component Sizing Information, Pump:VariableSpeed, HEATSYS1 PUMP, Design Flow Rate [m3/s], 3.64477E-002
 Component Sizing Information, Pump:VariableSpeed, HEATSYS1 PUMP, Design Power Consumption [W], 9311.92862
 Component Sizing Information, Boiler:HotWater, HEATSYS1 BOILER, Design Size Nominal Capacity [W], 1699553.99467
 Component Sizing Information, Boiler:HotWater, HEATSYS1 BOILER, Design Size Design Water Flow Rate [m3/s], 3.64477E-002
 Component Sizing Information, PlantLoop, SWHSYS1, Maximum Loop Flow Rate [m3/s], 4.22952E-003
 Component Sizing Information, PlantLoop, SWHSYS1, Plant Loop Volume [m3], 0.50754
 Component Sizing Information, Pump:VariableSpeed, SWHSYS1 PUMP, Design Flow Rate [m3/s], 4.22952E-003
 Component Sizing Information, Pump:VariableSpeed, SWHSYS1 PUMP, Design Power Consumption [W], 1080.58762
 Component Sizing Information, WaterHeater:Mixed, SWHSYS1 WATER HEATER, Use Side Design Flow Rate [m3/s], 4.22952E-003
! <Environment>,Environment Name,Environment Type, Start Date, End Date, Start DayOfWeek, Duration {#days}, Source:Start DayOfWeek,  Use Daylight Saving, Use Holidays, Apply Weekend Holiday Rule,  Use Rain Values, Use Snow Values
! <Environment:Special Days>, Special Day Name, Special Day Type, Source, Start Date, Duration {#days}
! <Environment:Daylight Saving>, Daylight Saving Indicator, Source, Start Date, End Date
! <Environment:WarmupDays>, NumberofWarmupDays
Environment,BALTIMORE MD USA TMY2-93721 WMO#=724060,WeatherFileRunPeriod,01/01,12/31,Sunday,365,Use RunPeriod Specified Day,No,No,No,Yes,Yes
Environment:Daylight Saving,Yes,InputFile,03/12,11/05
Environment:Special Days,NEW YEARS DAY,Holiday,InputFile,01/01,  1
Environment:Special Days,VETERANS DAY,Holiday,InputFile,11/11,  1
Environment:Special Days,CHRISTMAS,Holiday,InputFile,12/25,  1
Environment:Special Days,INDEPENDENCE DAY,Holiday,InputFile,07/04,  1
Environment:Special Days,MLK DAY,Holiday,InputFile,01/16,  1
Environment:Special Days,PRESIDENTS DAY,Holiday,InputFile,02/20,  1
Environment:Special Days,MEMORIAL DAY,Holiday,InputFile,05/29,  1
Environment:Special Days,LABOR DAY,Holiday,InputFile,09/04,  1
Environment:Special Days,COLUMBUS DAY,Holiday,InputFile,10/09,  1
Environment:Special Days,THANKSGIVING,Holiday,InputFile,11/23,  1
Environment:WarmupDays,  9
! <Warmup Convergence Information>,Zone Name,Environment Type/Name,Average Warmup Temperature Difference {deltaC},Std Dev Warmup Temperature Difference {deltaC},Max Temperature Pass/Fail Convergence,Min Temperature Pass/Fail Convergence,Average Warmup Load Difference {W},Std Dev Warmup Load Difference {W},Heating Load Pass/Fail Convergence,Cooling Load Pass/Fail Convergence
 Warmup Convergence Information,BANQUET_FLR_6,RunPeriod: BALTIMORE MD USA TMY2-93721 WMO#=724060,6.9006473926E-002,0.3221496389,Pass,Pass,4.3189031581E-002,0.1465736251,Pass,Pass
 Warmup Convergence Information,BASEMENT,RunPeriod: BALTIMORE MD USA TMY2-93721 WMO#=724060,2.1915718377E-002,0.1010495871,Pass,Pass,0.2975098501,1.4819122078,Pass,Pass
 Warmup Convergence Information,CAFE_FLR_1,RunPeriod: BALTIMORE MD USA TMY2-93721 WMO#=724060,7.1895348721E-002,0.3866746973,Pass,Pass,0.1534209612,0.5012131469,Pass,Pass
 Warmup Convergence Information,CORRIDOR_FLR_3,RunPeriod: BALTIMORE MD USA TMY2-93721 WMO#=724060,7.4217908046E-003,5.5821623423E-003,Pass,Pass,1.3280930163E-003,1.0718138771E-003,Pass,Pass
 Warmup Convergence Information,CORRIDOR_FLR_6,RunPeriod: BALTIMORE MD USA TMY2-93721 WMO#=724060,3.6298596030E-003,4.5852311772E-003,Pass,Pass,2.6631731081,28.5238698410,Pass,Pass
 Warmup Convergence Information,DINING_FLR_6,RunPeriod: BALTIMORE MD USA TMY2-93721 WMO#=724060,6.4017966984E-002,0.2836883108,Pass,Pass,3.2119478755E-002,0.1029175597,Pass,Pass
 Warmup Convergence Information,KITCHEN_FLR_6,RunPeriod: BALTIMORE MD USA TMY2-93721 WMO#=724060,0.1157987124,0.2099025050,Pass,Pass,1.5409599867E-002,3.4804833773E-002,Pass,Pass
 Warmup Convergence Information,LAUNDRY_FLR_1,RunPeriod: BALTIMORE MD USA TMY2-93721 WMO#=724060,0.1123165916,0.4352959537,Pass,Pass,9.4837517821E-002,0.4836761610,Pass,Pass
 Warmup Convergence Information,LOBBY_FLR_1,RunPeriod: BALTIMORE MD USA TMY2-93721 WMO#=724060,4.6030198791E-002,0.2177295953,Pass,Pass,0.1526949369,0.9917545292,Pass,Pass
 Warmup Convergence Information,MECH_FLR_1,RunPeriod: BALTIMORE MD USA TMY2-93721 WMO#=724060,1.9398445817E-002,2.5206301863E-002,Pass,Pass,2.6356946540E-003,3.4132606821E-003,Pass,Pass
 Warmup Convergence Information,RETAIL_1_FLR_1,RunPeriod: BALTIMORE MD USA TMY2-93721 WMO#=724060,7.1482087658E-002,0.3713581317,Pass,Pass,6.0419441768E-002,0.1080495692,Pass,Pass
 Warmup Convergence Information,RETAIL_2_FLR_1,RunPeriod: BALTIMORE MD USA TMY2-93721 WMO#=724060,4.3472747750E-002,0.2045655643,Pass,Pass,4.3230675020,38.1541920062,Pass,Pass
 Warmup Convergence Information,ROOM_1_FLR_3,RunPeriod: BALTIMORE MD USA TMY2-93721 WMO#=724060,7.4935376205E-005,1.3136906166E-004,Pass,Pass,2.5152961848E-002,4.7362463678E-002,Pass,Pass
 Warmup Convergence Information,ROOM_1_FLR_6,RunPeriod: BALTIMORE MD USA TMY2-93721 WMO#=724060,8.3483080721E-005,1.5402011158E-004,Pass,Pass,2.0733979488E-002,3.3982382702E-002,Pass,Pass
 Warmup Convergence Information,ROOM_2_FLR_3,RunPeriod: BALTIMORE MD USA TMY2-93721 WMO#=724060,6.5662668495E-005,1.2697164168E-004,Pass,Pass,2.3696740946E-002,4.6368971961E-002,Pass,Pass
 Warmup Convergence Information,ROOM_2_FLR_6,RunPeriod: BALTIMORE MD USA TMY2-93721 WMO#=724060,8.7350241183E-005,1.6207802537E-004,Pass,Pass,1.9640274290E-002,3.3311672422E-002,Pass,Pass
 Warmup Convergence Information,ROOM_3_MULT19_FLR_3,RunPeriod: BALTIMORE MD USA TMY2-93721 WMO#=724060,4.5377130113E-005,9.8172878905E-005,Pass,Pass,0.1998696454,0.6317769574,Pass,Pass
 Warmup Convergence Information,ROOM_3_MULT9_FLR_6,RunPeriod: BALTIMORE MD USA TMY2-93721 WMO#=724060,9.2379735641E-004,3.0276804108E-003,Pass,Pass,6.4288892209E-002,0.1211267465,Pass,Pass
 Warmup Convergence Information,ROOM_4_MULT19_FLR_3,RunPeriod: BALTIMORE MD USA TMY2-93721 WMO#=724060,4.6444680817E-005,9.4805144697E-005,Pass,Pass,0.1853999248,0.5631383085,Pass,Pass
 Warmup Convergence Information,ROOM_5_FLR_3,RunPeriod: BALTIMORE MD USA TMY2-93721 WMO#=724060,7.1277090832E-005,1.3712390383E-004,Pass,Pass,2.5592283116E-002,4.7657792992E-002,Pass,Pass
 Warmup Convergence Information,ROOM_6_FLR_3,RunPeriod: BALTIMORE MD USA TMY2-93721 WMO#=724060,6.3946447697E-005,1.2572160959E-004,Pass,Pass,2.4158428085E-002,4.6618740930E-002,Pass,Pass
 Warmup Convergence Information,STORAGE_FLR_1,RunPeriod: BALTIMORE MD USA TMY2-93721 WMO#=724060,1.4512082820E-002,1.5613022459E-002,Pass,Pass,2.1720257821E-003,2.3791880277E-003,Pass,Pass
! <Program Control Information:Threads/Parallel Sims>, Threading Supported,Maximum Number of Threads, Env Set Threads (OMP_NUM_THREADS), EP Env Set Threads (EP_OMP_NUM_THREADS), IDF Set Threads, Number of Threads Used (Interior Radiant Exchange), Number Nominal Surfaces, Number Parallel Sims
Program Control:Threads/Parallel Sims, No,1, N/A, N/A, N/A, N/A, N/A, N/A
End of Data
