Program Version,EnergyPlus, Version 8.8.0-7c3bbe4830, YMD=2018.08.31 08:02
! <Version>, Version ID
 Version, 8.8
! <Timesteps per Hour>, #TimeSteps, Minutes per TimeStep {minutes}
 Timesteps per Hour,  6, 10
! <System Convergence Limits>, Minimum System TimeStep {minutes}, Max HVAC Iterations, Minimum Plant Iterations, Maximum Plant Iterations
 System Convergence Limits, 2, 25, 2, 8
! <Simulation Control>, Do Zone Sizing, Do System Sizing, Do Plant Sizing, Do Design Days, Do Weather Simulation, Do HVAC Sizing Simulation
 Simulation Control, Yes, Yes, Yes, No, Yes, No
! <Output Reporting Tolerances>, Tolerance for Time Heating Setpoint Not Met, Tolerance for Zone Cooling Setpoint Not Met Time
 Output Reporting Tolerances, 0.556, 0.556, 
! <Site:GroundTemperature:BuildingSurface>,Jan{C},Feb{C},Mar{C},Apr{C},May{C},Jun{C},Jul{C},Aug{C},Sep{C},Oct{C},Nov{C},Dec{C}
 Site:GroundTemperature:BuildingSurface,  19.71,  19.66,  19.71,  19.75,  20.49,  22.11,  22.46,  22.55,  22.17,  20.61,  20.05,  19.80
! <Site:GroundTemperature:FCfactorMethod>,Jan{C},Feb{C},Mar{C},Apr{C},May{C},Jun{C},Jul{C},Aug{C},Sep{C},Oct{C},Nov{C},Dec{C}
 Site:GroundTemperature:FCfactorMethod,   2.18,   1.16,   2.97,   5.81,  13.21,  18.93,  22.79,  23.96,  21.96,  17.52,  11.59,   6.09
! <Site:GroundTemperature:Shallow>,Jan{C},Feb{C},Mar{C},Apr{C},May{C},Jun{C},Jul{C},Aug{C},Sep{C},Oct{C},Nov{C},Dec{C}
 Site:GroundTemperature:Shallow,  13.00,  13.00,  13.00,  13.00,  13.00,  13.00,  13.00,  13.00,  13.00,  13.00,  13.00,  13.00
! <Site:GroundTemperature:Deep>,Jan{C},Feb{C},Mar{C},Apr{C},May{C},Jun{C},Jul{C},Aug{C},Sep{C},Oct{C},Nov{C},Dec{C}
 Site:GroundTemperature:Deep,  16.00,  16.00,  16.00,  16.00,  16.00,  16.00,  16.00,  16.00,  16.00,  16.00,  16.00,  16.00
! <Site:GroundReflectance>,Jan{dimensionless},Feb{dimensionless},Mar{dimensionless},Apr{dimensionless},May{dimensionless},Jun{dimensionless},Jul{dimensionless},Aug{dimensionless},Sep{dimensionless},Oct{dimensionless},Nov{dimensionless},Dec{dimensionless}
 Site:GroundReflectance,  0.20,  0.20,  0.20,  0.20,  0.20,  0.20,  0.20,  0.20,  0.20,  0.20,  0.20,  0.20
! <Site:GroundReflectance:SnowModifier>, Normal, Daylighting {dimensionless}
 Site:GroundReflectance:SnowModifier,   1.000,   1.000
! <Site:GroundReflectance:Snow>,Jan{dimensionless},Feb{dimensionless},Mar{dimensionless},Apr{dimensionless},May{dimensionless},Jun{dimensionless},Jul{dimensionless},Aug{dimensionless},Sep{dimensionless},Oct{dimensionless},Nov{dimensionless},Dec{dimensionless}
 Site:GroundReflectance:Snow,  0.20,  0.20,  0.20,  0.20,  0.20,  0.20,  0.20,  0.20,  0.20,  0.20,  0.20,  0.20
! <Site:GroundReflectance:Snow:Daylighting>,Jan{dimensionless},Feb{dimensionless},Mar{dimensionless},Apr{dimensionless},May{dimensionless},Jun{dimensionless},Jul{dimensionless},Aug{dimensionless},Sep{dimensionless},Oct{dimensionless},Nov{dimensionless},Dec{dimensionless}
 Site:GroundReflectance:Snow:Daylighting,  0.20,  0.20,  0.20,  0.20,  0.20,  0.20,  0.20,  0.20,  0.20,  0.20,  0.20,  0.20
! <Environment:Weather Station>,Wind Sensor Height Above Ground {m},Wind Speed Profile Exponent {},Wind Speed Profile Boundary Layer Thickness {m},Air Temperature Sensor Height Above Ground {m},Wind Speed Modifier Coefficient-Internal,Temperature Modifier Coefficient-Internal
Environment:Weather Station,10.000,0.140,270.000,1.500,1.586,9.750E-003
! <Site:Location>, Location Name, Latitude {N+/S- Deg}, Longitude {E+/W- Deg},  Time Zone Number {GMT+/-}, Elevation {m},  Standard Pressure at Elevation {Pa}, Standard RhoAir at Elevation
Site:Location,BALTIMORE MD USA TMY2-93721 WMO#=724060,39.18,-76.67,-5.00,47.00,100762,1.1976
! <Building Information>, Building Name,North Axis {deg},Terrain,  Loads Convergence Tolerance Value,Temperature Convergence Tolerance Value,  Solar Distribution,Maximum Number of Warmup Days,Minimum Number of Warmup Days
 Building Information,Ref Bldg Midrise Apartment New2004_v1.3_5.0,0.000,City,4.00000E-002,0.20000,FullInteriorAndExterior,25,6
! <Inside Convection Algorithm>, Algorithm {Simple | TARP | CeilingDiffuser | AdaptiveConvectionAlgorithm}
Inside Convection Algorithm,TARP
! <Outside Convection Algorithm>, Algorithm {SimpleCombined | TARP | MoWitt | DOE-2 | AdaptiveConvectionAlgorithm}
Outside Convection Algorithm,DOE-2
! <Sky Radiance Distribution>, Value {Anisotropic}
Sky Radiance Distribution,Anisotropic
! <Zone Air Solution Algorithm>, Value {ThirdOrderBackwardDifference | AnalyticalSolution | EulerMethod}
 Zone Air Solution Algorithm, AnalyticalSolution
! <Zone Air Carbon Dioxide Balance Simulation>, Simulation {Yes/No}, Carbon Dioxide Concentration
 Zone Air Carbon Dioxide Balance Simulation, No,N/A
! <Zone Air Generic Contaminant Balance Simulation>, Simulation {Yes/No}, Generic Contaminant Concentration
 Zone Air Generic Contaminant Balance Simulation, No,N/A
! <Zone Air Mass Flow Balance Simulation>, Enforce Mass Balance, Adjust Zone Mixing, Adjust Zone Infiltration {AddInfiltration | AdjustInfiltration | None}, Infiltration Zones {MixingSourceZonesOnly | AllZones}
 Zone Air Mass Flow Balance Simulation, No,N/A,N/A,N/A
! <HVACSystemRootFindingAlgorithm>, Value {RegulaFalsi | Bisection | BisectionThenRegulaFalsi | RegulaFalsiThenBisection}
 HVACSystemRootFindingAlgorithm, RegulaFalsi
! <Environment:Site Atmospheric Variation>,Wind Speed Profile Exponent {},Wind Speed Profile Boundary Layer Thickness {m},Air Temperature Gradient Coefficient {K/m}
Environment:Site Atmospheric Variation,0.330,460.000,6.500000E-003
! <Surface Geometry>,Starting Corner,Vertex Input Direction,Coordinate System,Daylight Reference Point Coordinate System,Rectangular (Simple) Surface Coordinate System
 Surface Geometry,UpperLeftCorner,Counterclockwise,RelativeCoordinateSystem,RelativeCoordinateSystem,RelativeToZoneOrigin
! <Surface Heat Transfer Algorithm>, Value {CTF - ConductionTransferFunction | EMPD - MoisturePenetrationDepthConductionTransferFunction | CondFD - ConductionFiniteDifference | HAMT - CombinedHeatAndMoistureFiniteElement} - Description,Inside Surface Max Temperature Limit{C}, Surface Convection Coefficient Lower Limit {W/m2-K}, Surface Convection Coefficient Upper Limit {W/m2-K}
Surface Heat Transfer Algorithm, CTF - ConductionTransferFunction,200,0.10,1000.0
! <Shading Summary>, Number of Fixed Detached Shades, Number of Building Detached Shades, Number of Attached Shades
 Shading Summary,0,0,0
! <Zone Summary>, Number of Zones, Number of Zone Surfaces, Number of SubSurfaces
 Zone Summary,27,249,42
! <Zone Information>,Zone Name,North Axis {deg},Origin X-Coordinate {m},Origin Y-Coordinate {m},Origin Z-Coordinate {m},Centroid X-Coordinate {m},Centroid Y-Coordinate {m},Centroid Z-Coordinate {m},Type,Zone Multiplier,Zone List Multiplier,Minimum X {m},Maximum X {m},Minimum Y {m},Maximum Y {m},Minimum Z {m},Maximum Z {m},Ceiling Height {m},Volume {m3},Zone Inside Convection Algorithm {Simple-Detailed-CeilingDiffuser-TrombeWall},Zone Outside Convection Algorithm {Simple-Detailed-Tarp-MoWitt-DOE-2-BLAST}, Floor Area {m2},Exterior Gross Wall Area {m2},Exterior Net Wall Area {m2},Exterior Window Area {m2}, Number of Surfaces, Number of SubSurfaces, Number of Shading SubSurfaces,  Part of Total Building Area
 Zone Information, G SW APARTMENT,0.0,0.00,0.00,0.00,5.79,3.81,1.52,1,1,1,0.00,11.58,0.00,7.62,0.00,3.05,3.05,268.96,TARP,DOE-2,88.25,58.52,49.98,8.55,6,2,0,Yes
 Zone Information, G NW APARTMENT,0.0,0.00,9.30,0.00,5.79,13.11,1.52,1,1,1,0.00,11.58,9.30,16.92,0.00,3.05,3.05,268.96,TARP,DOE-2,88.25,58.52,49.98,8.55,6,2,0,Yes
 Zone Information, OFFICE,0.0,34.75,0.00,0.00,40.54,3.81,1.52,1,1,1,34.75,46.33,0.00,7.62,0.00,3.05,3.05,268.96,TARP,DOE-2,88.25,58.52,49.98,8.55,6,2,0,Yes
 Zone Information, G NE APARTMENT,0.0,34.75,9.30,0.00,40.54,13.11,1.52,1,1,1,34.75,46.33,9.30,16.92,0.00,3.05,3.05,268.96,TARP,DOE-2,88.25,58.52,49.98,8.55,6,2,0,Yes
 Zone Information, G N1 APARTMENT,0.0,11.58,9.30,0.00,17.37,13.11,1.52,1,1,1,11.58,23.16,9.30,16.92,0.00,3.05,3.05,268.96,TARP,DOE-2,88.25,35.30,30.10,5.20,6,1,0,Yes
 Zone Information, G N2 APARTMENT,0.0,23.16,9.30,0.00,28.95,13.11,1.52,1,1,1,23.16,34.75,9.30,16.92,0.00,3.05,3.05,268.96,TARP,DOE-2,88.25,35.30,30.10,5.20,6,1,0,Yes
 Zone Information, G S1 APARTMENT,0.0,11.58,0.00,0.00,17.37,3.81,1.52,1,1,1,11.58,23.16,0.00,7.62,0.00,3.05,3.05,268.96,TARP,DOE-2,88.25,35.30,30.10,5.20,6,1,0,Yes
 Zone Information, G S2 APARTMENT,0.0,23.16,0.00,0.00,28.95,3.81,1.52,1,1,1,23.16,34.75,0.00,7.62,0.00,3.05,3.05,268.96,TARP,DOE-2,88.25,35.30,30.10,5.20,6,1,0,Yes
 Zone Information, M SW APARTMENT,0.0,0.00,0.00,3.05,5.79,3.81,4.57,1,2,1,0.00,11.58,0.00,7.62,3.05,6.10,3.05,268.96,TARP,DOE-2,88.25,58.52,49.98,8.55,6,2,0,Yes
 Zone Information, M NW APARTMENT,0.0,0.00,9.30,3.05,5.79,13.11,4.57,1,2,1,0.00,11.58,9.30,16.92,3.05,6.10,3.05,268.96,TARP,DOE-2,88.25,58.52,49.98,8.55,6,2,0,Yes
 Zone Information, M SE APARTMENT,0.0,34.75,0.00,3.05,40.54,3.81,4.57,1,2,1,34.75,46.33,0.00,7.62,3.05,6.10,3.05,268.96,TARP,DOE-2,88.25,58.52,49.98,8.55,6,2,0,Yes
 Zone Information, M NE APARTMENT,0.0,34.75,9.30,3.05,40.54,13.11,4.57,1,2,1,34.75,46.33,9.30,16.92,3.05,6.10,3.05,268.96,TARP,DOE-2,88.25,58.52,49.98,8.55,6,2,0,Yes
 Zone Information, M N1 APARTMENT,0.0,11.58,9.30,3.05,17.37,13.11,4.57,1,2,1,11.58,23.16,9.30,16.92,3.05,6.10,3.05,268.96,TARP,DOE-2,88.25,35.30,30.10,5.20,6,1,0,Yes
 Zone Information, M N2 APARTMENT,0.0,23.16,9.30,3.05,28.95,13.11,4.57,1,2,1,23.16,34.75,9.30,16.92,3.05,6.10,3.05,268.96,TARP,DOE-2,88.25,35.30,30.10,5.20,6,1,0,Yes
 Zone Information, M S1 APARTMENT,0.0,11.58,0.00,3.05,17.37,3.81,4.57,1,2,1,11.58,23.16,0.00,7.62,3.05,6.10,3.05,268.96,TARP,DOE-2,88.25,35.30,30.10,5.20,6,1,0,Yes
 Zone Information, M S2 APARTMENT,0.0,23.16,0.00,3.05,28.95,3.81,4.57,1,2,1,23.16,34.75,0.00,7.62,3.05,6.10,3.05,268.96,TARP,DOE-2,88.25,35.30,30.10,5.20,6,1,0,Yes
 Zone Information, T SW APARTMENT,0.0,0.00,0.00,9.14,5.79,3.81,10.67,1,1,1,0.00,11.58,0.00,7.62,9.14,12.19,3.05,268.96,TARP,DOE-2,88.25,58.52,49.98,8.55,6,2,0,Yes
 Zone Information, T NW APARTMENT,0.0,0.00,9.30,9.14,5.79,13.11,10.67,1,1,1,0.00,11.58,9.30,16.92,9.14,12.19,3.05,268.96,TARP,DOE-2,88.25,58.52,49.98,8.55,6,2,0,Yes
 Zone Information, T SE APARTMENT,0.0,34.75,0.00,9.14,40.54,3.81,10.67,1,1,1,34.75,46.33,0.00,7.62,9.14,12.19,3.05,268.96,TARP,DOE-2,88.25,58.52,49.98,8.55,6,2,0,Yes
 Zone Information, T NE APARTMENT,0.0,34.75,9.30,9.14,40.54,13.11,10.67,1,1,1,34.75,46.33,9.30,16.92,9.14,12.19,3.05,268.96,TARP,DOE-2,88.25,58.52,49.98,8.55,6,2,0,Yes
 Zone Information, T N1 APARTMENT,0.0,11.58,9.30,9.14,17.37,13.11,10.67,1,1,1,11.58,23.16,9.30,16.92,9.14,12.19,3.05,268.96,TARP,DOE-2,88.25,35.30,30.10,5.20,6,1,0,Yes
 Zone Information, T N2 APARTMENT,0.0,23.16,9.30,9.14,28.95,13.11,10.67,1,1,1,23.16,34.75,9.30,16.92,9.14,12.19,3.05,268.96,TARP,DOE-2,88.25,35.30,30.10,5.20,6,1,0,Yes
 Zone Information, T S1 APARTMENT,0.0,11.58,0.00,9.14,17.37,3.81,10.67,1,1,1,11.58,23.16,0.00,7.62,9.14,12.19,3.05,268.96,TARP,DOE-2,88.25,35.30,30.10,5.20,6,1,0,Yes
 Zone Information, T S2 APARTMENT,0.0,23.16,0.00,9.14,28.95,3.81,10.67,1,1,1,23.16,34.75,0.00,7.62,9.14,12.19,3.05,268.96,TARP,DOE-2,88.25,35.30,30.10,5.20,6,1,0,Yes
 Zone Information, T CORRIDOR,0.0,0.00,7.62,9.14,23.16,8.46,10.67,1,1,1,0.00,46.33,7.62,9.30,9.14,12.19,3.05,236.69,TARP,DOE-2,77.66,10.22,7.99,2.23,12,2,0,Yes
 Zone Information, G CORRIDOR,0.0,0.00,7.62,0.00,23.16,8.46,1.52,1,1,1,0.00,46.33,7.62,9.30,0.00,3.05,3.05,236.69,TARP,DOE-2,77.66,10.22,5.78,4.43,12,2,0,Yes
 Zone Information, M CORRIDOR,0.0,0.00,7.62,3.05,23.16,8.46,4.57,1,2,1,0.00,46.33,7.62,9.30,3.05,6.10,3.05,236.69,TARP,DOE-2,77.66,10.22,7.99,2.23,12,2,0,Yes
! <Zone Internal Gains Nominal>,Zone Name, Floor Area {m2},# Occupants,Area per Occupant {m2/person},Occupant per Area {person/m2},Interior Lighting {W/m2},Electric Load {W/m2},Gas Load {W/m2},Other Load {W/m2},Hot Water Eq {W/m2},Steam Equipment {W/m2},Sum Loads per Area {W/m2},Outdoor Controlled Baseboard Heat
 Zone Internal Gains Nominal, G SW APARTMENT,88.25,2.5,35.299,2.833E-002,3.880,5.380,0.000,0.000,0.000,0.000,9.260,No
 Zone Internal Gains Nominal, G NW APARTMENT,88.25,2.5,35.299,2.833E-002,3.880,5.380,0.000,0.000,0.000,0.000,9.260,No
 Zone Internal Gains Nominal, OFFICE,88.25,2.0,44.124,2.266E-002,10.760,12.900,0.000,0.000,0.000,0.000,23.660,No
 Zone Internal Gains Nominal, G NE APARTMENT,88.25,2.5,35.299,2.833E-002,3.880,5.380,0.000,0.000,0.000,0.000,9.260,No
 Zone Internal Gains Nominal, G N1 APARTMENT,88.25,2.5,35.299,2.833E-002,3.880,5.380,0.000,0.000,0.000,0.000,9.260,No
 Zone Internal Gains Nominal, G N2 APARTMENT,88.25,2.5,35.299,2.833E-002,3.880,5.380,0.000,0.000,0.000,0.000,9.260,No
 Zone Internal Gains Nominal, G S1 APARTMENT,88.25,2.5,35.299,2.833E-002,3.880,5.380,0.000,0.000,0.000,0.000,9.260,No
 Zone Internal Gains Nominal, G S2 APARTMENT,88.25,2.5,35.299,2.833E-002,3.880,5.380,0.000,0.000,0.000,0.000,9.260,No
 Zone Internal Gains Nominal, M SW APARTMENT,88.25,2.5,35.299,2.833E-002,3.880,5.380,0.000,0.000,0.000,0.000,9.260,No
 Zone Internal Gains Nominal, M NW APARTMENT,88.25,2.5,35.299,2.833E-002,3.880,5.380,0.000,0.000,0.000,0.000,9.260,No
 Zone Internal Gains Nominal, M SE APARTMENT,88.25,2.5,35.299,2.833E-002,3.880,5.380,0.000,0.000,0.000,0.000,9.260,No
 Zone Internal Gains Nominal, M NE APARTMENT,88.25,2.5,35.299,2.833E-002,3.880,5.380,0.000,0.000,0.000,0.000,9.260,No
 Zone Internal Gains Nominal, M N1 APARTMENT,88.25,2.5,35.299,2.833E-002,3.880,5.380,0.000,0.000,0.000,0.000,9.260,No
 Zone Internal Gains Nominal, M N2 APARTMENT,88.25,2.5,35.299,2.833E-002,3.880,5.380,0.000,0.000,0.000,0.000,9.260,No
 Zone Internal Gains Nominal, M S1 APARTMENT,88.25,2.5,35.299,2.833E-002,3.880,5.380,0.000,0.000,0.000,0.000,9.260,No
 Zone Internal Gains Nominal, M S2 APARTMENT,88.25,2.5,35.299,2.833E-002,3.880,5.380,0.000,0.000,0.000,0.000,9.260,No
 Zone Internal Gains Nominal, T SW APARTMENT,88.25,2.5,35.299,2.833E-002,3.880,5.380,0.000,0.000,0.000,0.000,9.260,No
 Zone Internal Gains Nominal, T NW APARTMENT,88.25,2.5,35.299,2.833E-002,3.880,5.380,0.000,0.000,0.000,0.000,9.260,No
 Zone Internal Gains Nominal, T SE APARTMENT,88.25,2.5,35.299,2.833E-002,3.880,5.380,0.000,0.000,0.000,0.000,9.260,No
 Zone Internal Gains Nominal, T NE APARTMENT,88.25,2.5,35.299,2.833E-002,3.880,5.380,0.000,0.000,0.000,0.000,9.260,No
 Zone Internal Gains Nominal, T N1 APARTMENT,88.25,2.5,35.299,2.833E-002,3.880,5.380,0.000,0.000,0.000,0.000,9.260,No
 Zone Internal Gains Nominal, T N2 APARTMENT,88.25,2.5,35.299,2.833E-002,3.880,5.380,0.000,0.000,0.000,0.000,9.260,No
 Zone Internal Gains Nominal, T S1 APARTMENT,88.25,2.5,35.299,2.833E-002,3.880,5.380,0.000,0.000,0.000,0.000,9.260,No
 Zone Internal Gains Nominal, T S2 APARTMENT,88.25,2.5,35.299,2.833E-002,3.880,5.380,0.000,0.000,0.000,0.000,9.260,No
 Zone Internal Gains Nominal, T CORRIDOR,77.66,0.0,N/A,0.000,5.380,0.000,0.000,0.000,0.000,0.000,5.380,No
 Zone Internal Gains Nominal, G CORRIDOR,77.66,0.0,N/A,0.000,5.380,206.738,0.000,0.000,0.000,0.000,212.118,No
 Zone Internal Gains Nominal, M CORRIDOR,77.66,0.0,N/A,0.000,5.380,0.000,0.000,0.000,0.000,0.000,5.380,No
! <People Internal Gains Nominal>,Name,Schedule Name,Zone Name,Zone Floor Area {m2},# Zone Occupants,Number of People {},People/Floor Area {person/m2},Floor Area per person {m2/person},Fraction Radiant,Fraction Convected,Sensible Fraction Calculation,Activity level,ASHRAE 55 Warnings,Carbon Dioxide Generation Rate,Nominal Minimum Number of People,Nominal Maximum Number of People,MRT Calculation Type,Work Efficiency, Clothing Insulation Calculation Method,Clothing Insulation Calculation Method Schedule,Clothing,Air Velocity,Fanger Calculation,Pierce Calculation,KSU Calculation
 People Internal Gains Nominal, OFFICE PEOPLE,OFF_OCC_SCH,OFFICE,88.25,2.0,2.0,2.266E-002,44.124,0.300,0.700,AutoCalculate,ACTIVITY_SCH,No,3.8200E-008,0,2,Zone Averaged,WORK_EFF_SCH,Clothing Insulation Schedule,N/A,CLOTHING_SCH,AIR_VELO_SCH,Yes,No,No
 People Internal Gains Nominal, G SW APARTMENT PEOPLE,APT_OCC_SCH,G SW APARTMENT,88.25,2.5,2.5,2.833E-002,35.299,0.300,0.700,AutoCalculate,ACTIVITY_SCH,No,3.8200E-008,1,3,Zone Averaged,WORK_EFF_SCH,Clothing Insulation Schedule,N/A,CLOTHING_SCH,AIR_VELO_SCH,Yes,No,No
 People Internal Gains Nominal, G NW APARTMENT PEOPLE,APT_OCC_SCH,G NW APARTMENT,88.25,2.5,2.5,2.833E-002,35.299,0.300,0.700,AutoCalculate,ACTIVITY_SCH,No,3.8200E-008,1,3,Zone Averaged,WORK_EFF_SCH,Clothing Insulation Schedule,N/A,CLOTHING_SCH,AIR_VELO_SCH,Yes,No,No
 People Internal Gains Nominal, G NE APARTMENT PEOPLE,APT_OCC_SCH,G NE APARTMENT,88.25,2.5,2.5,2.833E-002,35.299,0.300,0.700,AutoCalculate,ACTIVITY_SCH,No,3.8200E-008,1,3,Zone Averaged,WORK_EFF_SCH,Clothing Insulation Schedule,N/A,CLOTHING_SCH,AIR_VELO_SCH,Yes,No,No
 People Internal Gains Nominal, G N1 APARTMENT PEOPLE,APT_OCC_SCH,G N1 APARTMENT,88.25,2.5,2.5,2.833E-002,35.299,0.300,0.700,AutoCalculate,ACTIVITY_SCH,No,3.8200E-008,1,3,Zone Averaged,WORK_EFF_SCH,Clothing Insulation Schedule,N/A,CLOTHING_SCH,AIR_VELO_SCH,Yes,No,No
 People Internal Gains Nominal, G N2 APARTMENT PEOPLE,APT_OCC_SCH,G N2 APARTMENT,88.25,2.5,2.5,2.833E-002,35.299,0.300,0.700,AutoCalculate,ACTIVITY_SCH,No,3.8200E-008,1,3,Zone Averaged,WORK_EFF_SCH,Clothing Insulation Schedule,N/A,CLOTHING_SCH,AIR_VELO_SCH,Yes,No,No
 People Internal Gains Nominal, G S1 APARTMENT PEOPLE,APT_OCC_SCH,G S1 APARTMENT,88.25,2.5,2.5,2.833E-002,35.299,0.300,0.700,AutoCalculate,ACTIVITY_SCH,No,3.8200E-008,1,3,Zone Averaged,WORK_EFF_SCH,Clothing Insulation Schedule,N/A,CLOTHING_SCH,AIR_VELO_SCH,Yes,No,No
 People Internal Gains Nominal, G S2 APARTMENT PEOPLE,APT_OCC_SCH,G S2 APARTMENT,88.25,2.5,2.5,2.833E-002,35.299,0.300,0.700,AutoCalculate,ACTIVITY_SCH,No,3.8200E-008,1,3,Zone Averaged,WORK_EFF_SCH,Clothing Insulation Schedule,N/A,CLOTHING_SCH,AIR_VELO_SCH,Yes,No,No
 People Internal Gains Nominal, M SW APARTMENT PEOPLE,APT_OCC_SCH,M SW APARTMENT,88.25,2.5,2.5,2.833E-002,35.299,0.300,0.700,AutoCalculate,ACTIVITY_SCH,No,3.8200E-008,1,3,Zone Averaged,WORK_EFF_SCH,Clothing Insulation Schedule,N/A,CLOTHING_SCH,AIR_VELO_SCH,Yes,No,No
 People Internal Gains Nominal, M NW APARTMENT PEOPLE,APT_OCC_SCH,M NW APARTMENT,88.25,2.5,2.5,2.833E-002,35.299,0.300,0.700,AutoCalculate,ACTIVITY_SCH,No,3.8200E-008,1,3,Zone Averaged,WORK_EFF_SCH,Clothing Insulation Schedule,N/A,CLOTHING_SCH,AIR_VELO_SCH,Yes,No,No
 People Internal Gains Nominal, M SE APARTMENT PEOPLE,APT_OCC_SCH,M SE APARTMENT,88.25,2.5,2.5,2.833E-002,35.299,0.300,0.700,AutoCalculate,ACTIVITY_SCH,No,3.8200E-008,1,3,Zone Averaged,WORK_EFF_SCH,Clothing Insulation Schedule,N/A,CLOTHING_SCH,AIR_VELO_SCH,Yes,No,No
 People Internal Gains Nominal, M NE APARTMENT PEOPLE,APT_OCC_SCH,M NE APARTMENT,88.25,2.5,2.5,2.833E-002,35.299,0.300,0.700,AutoCalculate,ACTIVITY_SCH,No,3.8200E-008,1,3,Zone Averaged,WORK_EFF_SCH,Clothing Insulation Schedule,N/A,CLOTHING_SCH,AIR_VELO_SCH,Yes,No,No
 People Internal Gains Nominal, M N1 APARTMENT PEOPLE,APT_OCC_SCH,M N1 APARTMENT,88.25,2.5,2.5,2.833E-002,35.299,0.300,0.700,AutoCalculate,ACTIVITY_SCH,No,3.8200E-008,1,3,Zone Averaged,WORK_EFF_SCH,Clothing Insulation Schedule,N/A,CLOTHING_SCH,AIR_VELO_SCH,Yes,No,No
 People Internal Gains Nominal, M N2 APARTMENT PEOPLE,APT_OCC_SCH,M N2 APARTMENT,88.25,2.5,2.5,2.833E-002,35.299,0.300,0.700,AutoCalculate,ACTIVITY_SCH,No,3.8200E-008,1,3,Zone Averaged,WORK_EFF_SCH,Clothing Insulation Schedule,N/A,CLOTHING_SCH,AIR_VELO_SCH,Yes,No,No
 People Internal Gains Nominal, M S1 APARTMENT PEOPLE,APT_OCC_SCH,M S1 APARTMENT,88.25,2.5,2.5,2.833E-002,35.299,0.300,0.700,AutoCalculate,ACTIVITY_SCH,No,3.8200E-008,1,3,Zone Averaged,WORK_EFF_SCH,Clothing Insulation Schedule,N/A,CLOTHING_SCH,AIR_VELO_SCH,Yes,No,No
 People Internal Gains Nominal, M S2 APARTMENT PEOPLE,APT_OCC_SCH,M S2 APARTMENT,88.25,2.5,2.5,2.833E-002,35.299,0.300,0.700,AutoCalculate,ACTIVITY_SCH,No,3.8200E-008,1,3,Zone Averaged,WORK_EFF_SCH,Clothing Insulation Schedule,N/A,CLOTHING_SCH,AIR_VELO_SCH,Yes,No,No
 People Internal Gains Nominal, T SW APARTMENT PEOPLE,APT_OCC_SCH,T SW APARTMENT,88.25,2.5,2.5,2.833E-002,35.299,0.300,0.700,AutoCalculate,ACTIVITY_SCH,No,3.8200E-008,1,3,Zone Averaged,WORK_EFF_SCH,Clothing Insulation Schedule,N/A,CLOTHING_SCH,AIR_VELO_SCH,Yes,No,No
 People Internal Gains Nominal, T NW APARTMENT PEOPLE,APT_OCC_SCH,T NW APARTMENT,88.25,2.5,2.5,2.833E-002,35.299,0.300,0.700,AutoCalculate,ACTIVITY_SCH,No,3.8200E-008,1,3,Zone Averaged,WORK_EFF_SCH,Clothing Insulation Schedule,N/A,CLOTHING_SCH,AIR_VELO_SCH,Yes,No,No
 People Internal Gains Nominal, T SE APARTMENT PEOPLE,APT_OCC_SCH,T SE APARTMENT,88.25,2.5,2.5,2.833E-002,35.299,0.300,0.700,AutoCalculate,ACTIVITY_SCH,No,3.8200E-008,1,3,Zone Averaged,WORK_EFF_SCH,Clothing Insulation Schedule,N/A,CLOTHING_SCH,AIR_VELO_SCH,Yes,No,No
 People Internal Gains Nominal, T NE APARTMENT PEOPLE,APT_OCC_SCH,T NE APARTMENT,88.25,2.5,2.5,2.833E-002,35.299,0.300,0.700,AutoCalculate,ACTIVITY_SCH,No,3.8200E-008,1,3,Zone Averaged,WORK_EFF_SCH,Clothing Insulation Schedule,N/A,CLOTHING_SCH,AIR_VELO_SCH,Yes,No,No
 People Internal Gains Nominal, T N1 APARTMENT PEOPLE,APT_OCC_SCH,T N1 APARTMENT,88.25,2.5,2.5,2.833E-002,35.299,0.300,0.700,AutoCalculate,ACTIVITY_SCH,No,3.8200E-008,1,3,Zone Averaged,WORK_EFF_SCH,Clothing Insulation Schedule,N/A,CLOTHING_SCH,AIR_VELO_SCH,Yes,No,No
 People Internal Gains Nominal, T N2 APARTMENT PEOPLE,APT_OCC_SCH,T N2 APARTMENT,88.25,2.5,2.5,2.833E-002,35.299,0.300,0.700,AutoCalculate,ACTIVITY_SCH,No,3.8200E-008,1,3,Zone Averaged,WORK_EFF_SCH,Clothing Insulation Schedule,N/A,CLOTHING_SCH,AIR_VELO_SCH,Yes,No,No
 People Internal Gains Nominal, T S1 APARTMENT PEOPLE,APT_OCC_SCH,T S1 APARTMENT,88.25,2.5,2.5,2.833E-002,35.299,0.300,0.700,AutoCalculate,ACTIVITY_SCH,No,3.8200E-008,1,3,Zone Averaged,WORK_EFF_SCH,Clothing Insulation Schedule,N/A,CLOTHING_SCH,AIR_VELO_SCH,Yes,No,No
 People Internal Gains Nominal, T S2 APARTMENT PEOPLE,APT_OCC_SCH,T S2 APARTMENT,88.25,2.5,2.5,2.833E-002,35.299,0.300,0.700,AutoCalculate,ACTIVITY_SCH,No,3.8200E-008,1,3,Zone Averaged,WORK_EFF_SCH,Clothing Insulation Schedule,N/A,CLOTHING_SCH,AIR_VELO_SCH,Yes,No,No
! <Lights Internal Gains Nominal>,Name,Schedule Name,Zone Name,Zone Floor Area {m2},# Zone Occupants,Lighting Level {W},Lights/Floor Area {W/m2},Lights per person {W/person},Fraction Return Air,Fraction Radiant,Fraction Short Wave,Fraction Convected,Fraction Replaceable,End-Use Category,Nominal Minimum Lighting Level {W},Nominal Maximum Lighting Level {W}
 Lights Internal Gains Nominal, OFFICE_LIGHTS,OFF_LIGHT_SCH,OFFICE,88.25,2.0,949.556,10.760,474.778,0.000,0.700,0.200,0.100,1.000,General,170.920,854.600
 Lights Internal Gains Nominal, G CORRIDOR_LIGHTS,COR_LIGHT_SCH,G CORRIDOR,77.66,0.0,417.802,5.380,N/A,0.000,0.700,0.200,0.100,1.000,General,417.802,417.802
 Lights Internal Gains Nominal, M CORRIDOR_LIGHTS,COR_LIGHT_SCH,M CORRIDOR,77.66,0.0,417.802,5.380,N/A,0.000,0.700,0.200,0.100,1.000,General,417.802,417.802
 Lights Internal Gains Nominal, T CORRIDOR_LIGHTS,COR_LIGHT_SCH,T CORRIDOR,77.66,0.0,417.802,5.380,N/A,0.000,0.700,0.200,0.100,1.000,General,417.802,417.802
 Lights Internal Gains Nominal, G SW APARTMENT_LIGHTS,APT_LIGHT_SCH,G SW APARTMENT,88.25,2.5,342.405,3.880,136.962,0.000,0.700,0.200,0.100,1.000,General,22.941,342.405
 Lights Internal Gains Nominal, G NW APARTMENT_LIGHTS,APT_LIGHT_SCH,G NW APARTMENT,88.25,2.5,342.405,3.880,136.962,0.000,0.700,0.200,0.100,1.000,General,22.941,342.405
 Lights Internal Gains Nominal, G NE APARTMENT_LIGHTS,APT_LIGHT_SCH,G NE APARTMENT,88.25,2.5,342.405,3.880,136.962,0.000,0.700,0.200,0.100,1.000,General,22.941,342.405
 Lights Internal Gains Nominal, G N1 APARTMENT_LIGHTS,APT_LIGHT_SCH,G N1 APARTMENT,88.25,2.5,342.405,3.880,136.962,0.000,0.700,0.200,0.100,1.000,General,22.941,342.405
 Lights Internal Gains Nominal, G N2 APARTMENT_LIGHTS,APT_LIGHT_SCH,G N2 APARTMENT,88.25,2.5,342.405,3.880,136.962,0.000,0.700,0.200,0.100,1.000,General,22.941,342.405
 Lights Internal Gains Nominal, G S1 APARTMENT_LIGHTS,APT_LIGHT_SCH,G S1 APARTMENT,88.25,2.5,342.405,3.880,136.962,0.000,0.700,0.200,0.100,1.000,General,22.941,342.405
 Lights Internal Gains Nominal, G S2 APARTMENT_LIGHTS,APT_LIGHT_SCH,G S2 APARTMENT,88.25,2.5,342.405,3.880,136.962,0.000,0.700,0.200,0.100,1.000,General,22.941,342.405
 Lights Internal Gains Nominal, M SW APARTMENT_LIGHTS,APT_LIGHT_SCH,M SW APARTMENT,88.25,2.5,342.405,3.880,136.962,0.000,0.700,0.200,0.100,1.000,General,22.941,342.405
 Lights Internal Gains Nominal, M NW APARTMENT_LIGHTS,APT_LIGHT_SCH,M NW APARTMENT,88.25,2.5,342.405,3.880,136.962,0.000,0.700,0.200,0.100,1.000,General,22.941,342.405
 Lights Internal Gains Nominal, M SE APARTMENT_LIGHTS,APT_LIGHT_SCH,M SE APARTMENT,88.25,2.5,342.405,3.880,136.962,0.000,0.700,0.200,0.100,1.000,General,22.941,342.405
 Lights Internal Gains Nominal, M NE APARTMENT_LIGHTS,APT_LIGHT_SCH,M NE APARTMENT,88.25,2.5,342.405,3.880,136.962,0.000,0.700,0.200,0.100,1.000,General,22.941,342.405
 Lights Internal Gains Nominal, M N1 APARTMENT_LIGHTS,APT_LIGHT_SCH,M N1 APARTMENT,88.25,2.5,342.405,3.880,136.962,0.000,0.700,0.200,0.100,1.000,General,22.941,342.405
 Lights Internal Gains Nominal, M N2 APARTMENT_LIGHTS,APT_LIGHT_SCH,M N2 APARTMENT,88.25,2.5,342.405,3.880,136.962,0.000,0.700,0.200,0.100,1.000,General,22.941,342.405
 Lights Internal Gains Nominal, M S1 APARTMENT_LIGHTS,APT_LIGHT_SCH,M S1 APARTMENT,88.25,2.5,342.405,3.880,136.962,0.000,0.700,0.200,0.100,1.000,General,22.941,342.405
 Lights Internal Gains Nominal, M S2 APARTMENT_LIGHTS,APT_LIGHT_SCH,M S2 APARTMENT,88.25,2.5,342.405,3.880,136.962,0.000,0.700,0.200,0.100,1.000,General,22.941,342.405
 Lights Internal Gains Nominal, T SW APARTMENT_LIGHTS,APT_LIGHT_SCH,T SW APARTMENT,88.25,2.5,342.405,3.880,136.962,0.000,0.700,0.200,0.100,1.000,General,22.941,342.405
 Lights Internal Gains Nominal, T NW APARTMENT_LIGHTS,APT_LIGHT_SCH,T NW APARTMENT,88.25,2.5,342.405,3.880,136.962,0.000,0.700,0.200,0.100,1.000,General,22.941,342.405
 Lights Internal Gains Nominal, T SE APARTMENT_LIGHTS,APT_LIGHT_SCH,T SE APARTMENT,88.25,2.5,342.405,3.880,136.962,0.000,0.700,0.200,0.100,1.000,General,22.941,342.405
 Lights Internal Gains Nominal, T NE APARTMENT_LIGHTS,APT_LIGHT_SCH,T NE APARTMENT,88.25,2.5,342.405,3.880,136.962,0.000,0.700,0.200,0.100,1.000,General,22.941,342.405
 Lights Internal Gains Nominal, T N1 APARTMENT_LIGHTS,APT_LIGHT_SCH,T N1 APARTMENT,88.25,2.5,342.405,3.880,136.962,0.000,0.700,0.200,0.100,1.000,General,22.941,342.405
 Lights Internal Gains Nominal, T N2 APARTMENT_LIGHTS,APT_LIGHT_SCH,T N2 APARTMENT,88.25,2.5,342.405,3.880,136.962,0.000,0.700,0.200,0.100,1.000,General,22.941,342.405
 Lights Internal Gains Nominal, T S1 APARTMENT_LIGHTS,APT_LIGHT_SCH,T S1 APARTMENT,88.25,2.5,342.405,3.880,136.962,0.000,0.700,0.200,0.100,1.000,General,22.941,342.405
 Lights Internal Gains Nominal, T S2 APARTMENT_LIGHTS,APT_LIGHT_SCH,T S2 APARTMENT,88.25,2.5,342.405,3.880,136.962,0.000,0.700,0.200,0.100,1.000,General,22.941,342.405
! <ElectricEquipment Internal Gains Nominal>,Name,Schedule Name,Zone Name,Zone Floor Area {m2},# Zone Occupants,Equipment Level {W},Equipment/Floor Area {W/m2},Equipment per person {W/person},Fraction Latent,Fraction Radiant,Fraction Lost,Fraction Convected,End-Use SubCategory,Nominal Minimum Equipment Level {W},Nominal Maximum Equipment Level {W}
 ElectricEquipment Internal Gains Nominal, OFFICE_PLUGMISC_EQUIP,OFF_EQP_SCH,OFFICE,88.25,2.0,1138.408,12.900,569.204,0.000,0.500,0.000,0.500,General,375.675,1138.408
 ElectricEquipment Internal Gains Nominal, G CORRIDOR_ELEVATORS_EQUIP,BLDG_ELEVATORS,G CORRIDOR,77.66,0.0,16054.945,206.738,N/A,0.000,0.000,0.950,5.000E-002,Elevators,802.747,8027.473
 ElectricEquipment Internal Gains Nominal, G SW APARTMENT_PLUGMISC_EQUIP,APT_EQP_SCH,G SW APARTMENT,88.25,2.5,474.778,5.380,189.911,0.000,0.500,0.000,0.500,General,180.416,474.778
 ElectricEquipment Internal Gains Nominal, G NW APARTMENT_PLUGMISC_EQUIP,APT_EQP_SCH,G NW APARTMENT,88.25,2.5,474.778,5.380,189.911,0.000,0.500,0.000,0.500,General,180.416,474.778
 ElectricEquipment Internal Gains Nominal, G NE APARTMENT_PLUGMISC_EQUIP,APT_EQP_SCH,G NE APARTMENT,88.25,2.5,474.778,5.380,189.911,0.000,0.500,0.000,0.500,General,180.416,474.778
 ElectricEquipment Internal Gains Nominal, G N1 APARTMENT_PLUGMISC_EQUIP,APT_EQP_SCH,G N1 APARTMENT,88.25,2.5,474.778,5.380,189.911,0.000,0.500,0.000,0.500,General,180.416,474.778
 ElectricEquipment Internal Gains Nominal, G N2 APARTMENT_PLUGMISC_EQUIP,APT_EQP_SCH,G N2 APARTMENT,88.25,2.5,474.778,5.380,189.911,0.000,0.500,0.000,0.500,General,180.416,474.778
 ElectricEquipment Internal Gains Nominal, G S1 APARTMENT_PLUGMISC_EQUIP,APT_EQP_SCH,G S1 APARTMENT,88.25,2.5,474.778,5.380,189.911,0.000,0.500,0.000,0.500,General,180.416,474.778
 ElectricEquipment Internal Gains Nominal, G S2 APARTMENT_PLUGMISC_EQUIP,APT_EQP_SCH,G S2 APARTMENT,88.25,2.5,474.778,5.380,189.911,0.000,0.500,0.000,0.500,General,180.416,474.778
 ElectricEquipment Internal Gains Nominal, M SW APARTMENT_PLUGMISC_EQUIP,APT_EQP_SCH,M SW APARTMENT,88.25,2.5,474.778,5.380,189.911,0.000,0.500,0.000,0.500,General,180.416,474.778
 ElectricEquipment Internal Gains Nominal, M NW APARTMENT_PLUGMISC_EQUIP,APT_EQP_SCH,M NW APARTMENT,88.25,2.5,474.778,5.380,189.911,0.000,0.500,0.000,0.500,General,180.416,474.778
 ElectricEquipment Internal Gains Nominal, M SE APARTMENT_PLUGMISC_EQUIP,APT_EQP_SCH,M SE APARTMENT,88.25,2.5,474.778,5.380,189.911,0.000,0.500,0.000,0.500,General,180.416,474.778
 ElectricEquipment Internal Gains Nominal, M NE APARTMENT_PLUGMISC_EQUIP,APT_EQP_SCH,M NE APARTMENT,88.25,2.5,474.778,5.380,189.911,0.000,0.500,0.000,0.500,General,180.416,474.778
 ElectricEquipment Internal Gains Nominal, M N1 APARTMENT_PLUGMISC_EQUIP,APT_EQP_SCH,M N1 APARTMENT,88.25,2.5,474.778,5.380,189.911,0.000,0.500,0.000,0.500,General,180.416,474.778
 ElectricEquipment Internal Gains Nominal, M N2 APARTMENT_PLUGMISC_EQUIP,APT_EQP_SCH,M N2 APARTMENT,88.25,2.5,474.778,5.380,189.911,0.000,0.500,0.000,0.500,General,180.416,474.778
 ElectricEquipment Internal Gains Nominal, M S1 APARTMENT_PLUGMISC_EQUIP,APT_EQP_SCH,M S1 APARTMENT,88.25,2.5,474.778,5.380,189.911,0.000,0.500,0.000,0.500,General,180.416,474.778
 ElectricEquipment Internal Gains Nominal, M S2 APARTMENT_PLUGMISC_EQUIP,APT_EQP_SCH,M S2 APARTMENT,88.25,2.5,474.778,5.380,189.911,0.000,0.500,0.000,0.500,General,180.416,474.778
 ElectricEquipment Internal Gains Nominal, T SW APARTMENT_PLUGMISC_EQUIP,APT_EQP_SCH,T SW APARTMENT,88.25,2.5,474.778,5.380,189.911,0.000,0.500,0.000,0.500,General,180.416,474.778
 ElectricEquipment Internal Gains Nominal, T NW APARTMENT_PLUGMISC_EQUIP,APT_EQP_SCH,T NW APARTMENT,88.25,2.5,474.778,5.380,189.911,0.000,0.500,0.000,0.500,General,180.416,474.778
 ElectricEquipment Internal Gains Nominal, T SE APARTMENT_PLUGMISC_EQUIP,APT_EQP_SCH,T SE APARTMENT,88.25,2.5,474.778,5.380,189.911,0.000,0.500,0.000,0.500,General,180.416,474.778
 ElectricEquipment Internal Gains Nominal, T NE APARTMENT_PLUGMISC_EQUIP,APT_EQP_SCH,T NE APARTMENT,88.25,2.5,474.778,5.380,189.911,0.000,0.500,0.000,0.500,General,180.416,474.778
 ElectricEquipment Internal Gains Nominal, T N1 APARTMENT_PLUGMISC_EQUIP,APT_EQP_SCH,T N1 APARTMENT,88.25,2.5,474.778,5.380,189.911,0.000,0.500,0.000,0.500,General,180.416,474.778
 ElectricEquipment Internal Gains Nominal, T N2 APARTMENT_PLUGMISC_EQUIP,APT_EQP_SCH,T N2 APARTMENT,88.25,2.5,474.778,5.380,189.911,0.000,0.500,0.000,0.500,General,180.416,474.778
 ElectricEquipment Internal Gains Nominal, T S1 APARTMENT_PLUGMISC_EQUIP,APT_EQP_SCH,T S1 APARTMENT,88.25,2.5,474.778,5.380,189.911,0.000,0.500,0.000,0.500,General,180.416,474.778
 ElectricEquipment Internal Gains Nominal, T S2 APARTMENT_PLUGMISC_EQUIP,APT_EQP_SCH,T S2 APARTMENT,88.25,2.5,474.778,5.380,189.911,0.000,0.500,0.000,0.500,General,180.416,474.778
! <Shadowing/Sun Position Calculations Annual Simulations>, Calculation Method, Value {days}, Allowable Number Figures in Shadow Overlap {}, Polygon Clipping Algorithm, Sky Diffuse Modeling Algorithm
Shadowing/Sun Position Calculations Annual Simulations,AverageOverDaysInFrequency,7,15000,SutherlandHodgman,SimpleSkyDiffuseModeling,InternalCalculation,No
! <Water Heater Information>,Type,Name,Volume {m3},Maximum Capacity {W},Standard Rated Recovery Efficiency, Standard Rated Energy Factor
! <ZoneInfiltration Airflow Stats Nominal>,Name,Schedule Name,Zone Name, Zone Floor Area {m2}, # Zone Occupants,Design Volume Flow Rate {m3/s},Volume Flow Rate/Floor Area {m3/s/m2},Volume Flow Rate/Exterior Surface Area {m3/s/m2},ACH - Air Changes per Hour,Equation A - Constant Term Coefficient {},Equation B - Temperature Term Coefficient {1/C},Equation C - Velocity Term Coefficient {s/m}, Equation D - Velocity Squared Term Coefficient {s2/m2}
 ZoneInfiltration Airflow Stats Nominal, OFFICE_INFILTRATION,OFFICE_INFIL_SCH,OFFICE,88.25,2.0,1.767E-002,2.003E-004,3.020E-004,0.237,1.000,0.000,0.000,0.000
 ZoneInfiltration Airflow Stats Nominal, G CORRIDOR_INFILTRATION,INFIL_SCH,G CORRIDOR,77.66,0.0,3.086E-003,3.974E-005,3.020E-004,4.694E-002,1.000,0.000,0.000,0.000
 ZoneInfiltration Airflow Stats Nominal, M CORRIDOR_INFILTRATION,INFIL_SCH,M CORRIDOR,77.66,0.0,3.086E-003,3.974E-005,3.020E-004,4.694E-002,1.000,0.000,0.000,0.000
 ZoneInfiltration Airflow Stats Nominal, T CORRIDOR_INFILTRATION,INFIL_SCH,T CORRIDOR,77.66,0.0,2.654E-002,3.417E-004,3.020E-004,0.404,1.000,0.000,0.000,0.000
 ZoneInfiltration Airflow Stats Nominal, G SW APARTMENT_INFILTRATION,INFIL_SCH,G SW APARTMENT,88.25,2.5,1.767E-002,2.003E-004,3.020E-004,0.237,1.000,0.000,0.000,0.000
 ZoneInfiltration Airflow Stats Nominal, G NW APARTMENT_INFILTRATION,INFIL_SCH,G NW APARTMENT,88.25,2.5,1.767E-002,2.003E-004,3.020E-004,0.237,1.000,0.000,0.000,0.000
 ZoneInfiltration Airflow Stats Nominal, G NE APARTMENT_INFILTRATION,INFIL_SCH,G NE APARTMENT,88.25,2.5,1.767E-002,2.003E-004,3.020E-004,0.237,1.000,0.000,0.000,0.000
 ZoneInfiltration Airflow Stats Nominal, G N1 APARTMENT_INFILTRATION,INFIL_SCH,G N1 APARTMENT,88.25,2.5,1.066E-002,1.208E-004,3.020E-004,0.143,1.000,0.000,0.000,0.000
 ZoneInfiltration Airflow Stats Nominal, G N2 APARTMENT_INFILTRATION,INFIL_SCH,G N2 APARTMENT,88.25,2.5,1.066E-002,1.208E-004,3.020E-004,0.143,1.000,0.000,0.000,0.000
 ZoneInfiltration Airflow Stats Nominal, G S1 APARTMENT_INFILTRATION,INFIL_SCH,G S1 APARTMENT,88.25,2.5,1.066E-002,1.208E-004,3.020E-004,0.143,1.000,0.000,0.000,0.000
 ZoneInfiltration Airflow Stats Nominal, G S2 APARTMENT_INFILTRATION,INFIL_SCH,G S2 APARTMENT,88.25,2.5,1.066E-002,1.208E-004,3.020E-004,0.143,1.000,0.000,0.000,0.000
 ZoneInfiltration Airflow Stats Nominal, M SW APARTMENT_INFILTRATION,INFIL_SCH,M SW APARTMENT,88.25,2.5,1.767E-002,2.003E-004,3.020E-004,0.237,1.000,0.000,0.000,0.000
 ZoneInfiltration Airflow Stats Nominal, M NW APARTMENT_INFILTRATION,INFIL_SCH,M NW APARTMENT,88.25,2.5,1.767E-002,2.003E-004,3.020E-004,0.237,1.000,0.000,0.000,0.000
 ZoneInfiltration Airflow Stats Nominal, M SE APARTMENT_INFILTRATION,INFIL_SCH,M SE APARTMENT,88.25,2.5,1.767E-002,2.003E-004,3.020E-004,0.237,1.000,0.000,0.000,0.000
 ZoneInfiltration Airflow Stats Nominal, M NE APARTMENT_INFILTRATION,INFIL_SCH,M NE APARTMENT,88.25,2.5,1.767E-002,2.003E-004,3.020E-004,0.237,1.000,0.000,0.000,0.000
 ZoneInfiltration Airflow Stats Nominal, M N1 APARTMENT_INFILTRATION,INFIL_SCH,M N1 APARTMENT,88.25,2.5,1.066E-002,1.208E-004,3.020E-004,0.143,1.000,0.000,0.000,0.000
 ZoneInfiltration Airflow Stats Nominal, M N2 APARTMENT_INFILTRATION,INFIL_SCH,M N2 APARTMENT,88.25,2.5,1.066E-002,1.208E-004,3.020E-004,0.143,1.000,0.000,0.000,0.000
 ZoneInfiltration Airflow Stats Nominal, M S1 APARTMENT_INFILTRATION,INFIL_SCH,M S1 APARTMENT,88.25,2.5,1.066E-002,1.208E-004,3.020E-004,0.143,1.000,0.000,0.000,0.000
 ZoneInfiltration Airflow Stats Nominal, M S2 APARTMENT_INFILTRATION,INFIL_SCH,M S2 APARTMENT,88.25,2.5,1.066E-002,1.208E-004,3.020E-004,0.143,1.000,0.000,0.000,0.000
 ZoneInfiltration Airflow Stats Nominal, T SW APARTMENT_INFILTRATION,INFIL_SCH,T SW APARTMENT,88.25,2.5,4.432E-002,5.023E-004,3.020E-004,0.593,1.000,0.000,0.000,0.000
 ZoneInfiltration Airflow Stats Nominal, T NW APARTMENT_INFILTRATION,INFIL_SCH,T NW APARTMENT,88.25,2.5,4.432E-002,5.023E-004,3.020E-004,0.593,1.000,0.000,0.000,0.000
 ZoneInfiltration Airflow Stats Nominal, T SE APARTMENT_INFILTRATION,INFIL_SCH,T SE APARTMENT,88.25,2.5,4.432E-002,5.023E-004,3.020E-004,0.593,1.000,0.000,0.000,0.000
 ZoneInfiltration Airflow Stats Nominal, T NE APARTMENT_INFILTRATION,INFIL_SCH,T NE APARTMENT,88.25,2.5,4.432E-002,5.023E-004,3.020E-004,0.593,1.000,0.000,0.000,0.000
 ZoneInfiltration Airflow Stats Nominal, T N1 APARTMENT_INFILTRATION,INFIL_SCH,T N1 APARTMENT,88.25,2.5,3.731E-002,4.228E-004,3.020E-004,0.499,1.000,0.000,0.000,0.000
 ZoneInfiltration Airflow Stats Nominal, T N2 APARTMENT_INFILTRATION,INFIL_SCH,T N2 APARTMENT,88.25,2.5,3.731E-002,4.228E-004,3.020E-004,0.499,1.000,0.000,0.000,0.000
 ZoneInfiltration Airflow Stats Nominal, T S1 APARTMENT_INFILTRATION,INFIL_SCH,T S1 APARTMENT,88.25,2.5,3.731E-002,4.228E-004,3.020E-004,0.499,1.000,0.000,0.000,0.000
 ZoneInfiltration Airflow Stats Nominal, T S2 APARTMENT_INFILTRATION,INFIL_SCH,T S2 APARTMENT,88.25,2.5,3.731E-002,4.228E-004,3.020E-004,0.499,1.000,0.000,0.000,0.000
! <AirFlow Model>, Simple
 AirFlow Model, Simple
! <RoomAir Model>, Zone Name, Mixing/Mundt/UCSDDV/UCSDCV/UCSDUFI/UCSDUFE/User Defined
RoomAir Model,G SW APARTMENT,Mixing/Well-Stirred
RoomAir Model,G NW APARTMENT,Mixing/Well-Stirred
RoomAir Model,OFFICE,Mixing/Well-Stirred
RoomAir Model,G NE APARTMENT,Mixing/Well-Stirred
RoomAir Model,G N1 APARTMENT,Mixing/Well-Stirred
RoomAir Model,G N2 APARTMENT,Mixing/Well-Stirred
RoomAir Model,G S1 APARTMENT,Mixing/Well-Stirred
RoomAir Model,G S2 APARTMENT,Mixing/Well-Stirred
RoomAir Model,M SW APARTMENT,Mixing/Well-Stirred
RoomAir Model,M NW APARTMENT,Mixing/Well-Stirred
RoomAir Model,M SE APARTMENT,Mixing/Well-Stirred
RoomAir Model,M NE APARTMENT,Mixing/Well-Stirred
RoomAir Model,M N1 APARTMENT,Mixing/Well-Stirred
RoomAir Model,M N2 APARTMENT,Mixing/Well-Stirred
RoomAir Model,M S1 APARTMENT,Mixing/Well-Stirred
RoomAir Model,M S2 APARTMENT,Mixing/Well-Stirred
RoomAir Model,T SW APARTMENT,Mixing/Well-Stirred
RoomAir Model,T NW APARTMENT,Mixing/Well-Stirred
RoomAir Model,T SE APARTMENT,Mixing/Well-Stirred
RoomAir Model,T NE APARTMENT,Mixing/Well-Stirred
RoomAir Model,T N1 APARTMENT,Mixing/Well-Stirred
RoomAir Model,T N2 APARTMENT,Mixing/Well-Stirred
RoomAir Model,T S1 APARTMENT,Mixing/Well-Stirred
RoomAir Model,T S2 APARTMENT,Mixing/Well-Stirred
RoomAir Model,T CORRIDOR,Mixing/Well-Stirred
RoomAir Model,G CORRIDOR,Mixing/Well-Stirred
RoomAir Model,M CORRIDOR,Mixing/Well-Stirred
! <AirflowNetwork Model:Control>, No Multizone or Distribution/Multizone with Distribution/Multizone without Distribution/Multizone with Distribution only during Fan Operation
AirflowNetwork Model:Control,NoMultizoneOrDistribution
! <Zone Volume Capacitance Multiplier>, Sensible Heat Capacity Multiplier, Moisture Capacity Multiplier, Carbon Dioxide Capacity Multiplier, Generic Contaminant Capacity Multiplier
Zone Volume Capacitance Multiplier,   1.000 ,   1.000,   1.000,   1.000
! <Load Timesteps in Zone Design Calculation Averaging Window>, Value
 Load Timesteps in Zone Design Calculation Averaging Window,    6
! <Heating Sizing Factor Information>, Sizing Factor ID, Value
 Heating Sizing Factor Information, Global,   1.3300    
 Heating Sizing Factor Information, Zone G SW APARTMENT,   1.3300    
 Heating Sizing Factor Information, Zone G NW APARTMENT,   1.3300    
 Heating Sizing Factor Information, Zone OFFICE,   1.3300    
 Heating Sizing Factor Information, Zone G NE APARTMENT,   1.3300    
 Heating Sizing Factor Information, Zone G N1 APARTMENT,   1.3300    
 Heating Sizing Factor Information, Zone G N2 APARTMENT,   1.3300    
 Heating Sizing Factor Information, Zone G S1 APARTMENT,   1.3300    
 Heating Sizing Factor Information, Zone G S2 APARTMENT,   1.3300    
 Heating Sizing Factor Information, Zone M SW APARTMENT,   1.3300    
 Heating Sizing Factor Information, Zone M NW APARTMENT,   1.3300    
 Heating Sizing Factor Information, Zone M SE APARTMENT,   1.3300    
 Heating Sizing Factor Information, Zone M NE APARTMENT,   1.3300    
 Heating Sizing Factor Information, Zone M N1 APARTMENT,   1.3300    
 Heating Sizing Factor Information, Zone M N2 APARTMENT,   1.3300    
 Heating Sizing Factor Information, Zone M S1 APARTMENT,   1.3300    
 Heating Sizing Factor Information, Zone M S2 APARTMENT,   1.3300    
 Heating Sizing Factor Information, Zone T SW APARTMENT,   1.3300    
 Heating Sizing Factor Information, Zone T NW APARTMENT,   1.3300    
 Heating Sizing Factor Information, Zone T SE APARTMENT,   1.3300    
 Heating Sizing Factor Information, Zone T NE APARTMENT,   1.3300    
 Heating Sizing Factor Information, Zone T N1 APARTMENT,   1.3300    
 Heating Sizing Factor Information, Zone T N2 APARTMENT,   1.3300    
 Heating Sizing Factor Information, Zone T S1 APARTMENT,   1.3300    
 Heating Sizing Factor Information, Zone T S2 APARTMENT,   1.3300    
 Heating Sizing Factor Information, Zone T CORRIDOR,   1.3300    
 Heating Sizing Factor Information, Zone G CORRIDOR,   1.3300    
 Heating Sizing Factor Information, Zone M CORRIDOR,   1.3300    
! <Cooling Sizing Factor Information>, Sizing Factor ID, Value
 Cooling Sizing Factor Information, Global,   1.3300    
 Cooling Sizing Factor Information, Zone G SW APARTMENT,   1.3300    
 Cooling Sizing Factor Information, Zone G NW APARTMENT,   1.3300    
 Cooling Sizing Factor Information, Zone OFFICE,   1.3300    
 Cooling Sizing Factor Information, Zone G NE APARTMENT,   1.3300    
 Cooling Sizing Factor Information, Zone G N1 APARTMENT,   1.3300    
 Cooling Sizing Factor Information, Zone G N2 APARTMENT,   1.3300    
 Cooling Sizing Factor Information, Zone G S1 APARTMENT,   1.3300    
 Cooling Sizing Factor Information, Zone G S2 APARTMENT,   1.3300    
 Cooling Sizing Factor Information, Zone M SW APARTMENT,   1.3300    
 Cooling Sizing Factor Information, Zone M NW APARTMENT,   1.3300    
 Cooling Sizing Factor Information, Zone M SE APARTMENT,   1.3300    
 Cooling Sizing Factor Information, Zone M NE APARTMENT,   1.3300    
 Cooling Sizing Factor Information, Zone M N1 APARTMENT,   1.3300    
 Cooling Sizing Factor Information, Zone M N2 APARTMENT,   1.3300    
 Cooling Sizing Factor Information, Zone M S1 APARTMENT,   1.3300    
 Cooling Sizing Factor Information, Zone M S2 APARTMENT,   1.3300    
 Cooling Sizing Factor Information, Zone T SW APARTMENT,   1.3300    
 Cooling Sizing Factor Information, Zone T NW APARTMENT,   1.3300    
 Cooling Sizing Factor Information, Zone T SE APARTMENT,   1.3300    
 Cooling Sizing Factor Information, Zone T NE APARTMENT,   1.3300    
 Cooling Sizing Factor Information, Zone T N1 APARTMENT,   1.3300    
 Cooling Sizing Factor Information, Zone T N2 APARTMENT,   1.3300    
 Cooling Sizing Factor Information, Zone T S1 APARTMENT,   1.3300    
 Cooling Sizing Factor Information, Zone T S2 APARTMENT,   1.3300    
 Cooling Sizing Factor Information, Zone T CORRIDOR,   1.3300    
 Cooling Sizing Factor Information, Zone G CORRIDOR,   1.3300    
 Cooling Sizing Factor Information, Zone M CORRIDOR,   1.3300    
! <Zone Sizing Information>, Zone Name, Load Type, Calc Des Load {W}, User Des Load {W}, Calc Des Air Flow Rate {m3/s}, User Des Air Flow Rate {m3/s}, Design Day Name, Date/Time of Peak, Temperature at Peak {C}, Humidity Ratio at Peak {kgWater/kgDryAir}, Floor Area {m2}, # Occupants, Calc Outdoor Air Flow Rate {m3/s}, Calc DOAS Heat Addition Rate {W}
 Zone Sizing Information, G SW APARTMENT, Cooling, 1347.28107, 1791.88383, 8.61350E-002, 0.11456, BALTIMORE ANN CLG .4% CONDNS WB=>MDB, 7/21 18:00:00, 28.80400, 1.85424E-002, 88.24868, 2.50000, 4.24800E-002, 0.00000
 Zone Sizing Information, G SW APARTMENT, Heating, 1747.23144, 2323.81781, 7.56826E-002, 0.10066, BALTIMORE ANN HTG 99.6% CONDNS DB, 1/21 15:00:00, -11.00000, 1.47100E-003, 88.24868, 2.50000, 4.24800E-002, 0.00000
 Zone Sizing Information, G NW APARTMENT, Cooling, 1256.82778, 1671.58095, 8.03553E-002, 0.10687, BALTIMORE ANN CLG .4% CONDNS WB=>MDB, 7/21 18:10:00, 28.54400, 1.85424E-002, 88.24868, 2.50000, 4.24800E-002, 0.00000
 Zone Sizing Information, G NW APARTMENT, Heating, 1742.63362, 2317.70272, 7.54834E-002, 0.10039, BALTIMORE ANN HTG 99.6% CONDNS DB, 1/21 15:00:00, -11.00000, 1.47100E-003, 88.24868, 2.50000, 4.24800E-002, 0.00000
 Zone Sizing Information, OFFICE, Cooling, 2310.66825, 3073.18877, 0.14498, 0.19282, BALTIMORE ANN CLG .4% CONDNS WB=>MDB, 7/21 09:00:00, 25.58000, 1.85424E-002, 88.24868, 2.00000, 2.00000E-002, 0.00000
 Zone Sizing Information, OFFICE, Heating, 3059.35944, 4068.94806, 0.13071, 0.17385, BALTIMORE ANN HTG 99.6% CONDNS DB, 1/21 09:00:00, -11.00000, 1.47100E-003, 88.24868, 2.00000, 2.00000E-002, 0.00000
 Zone Sizing Information, G NE APARTMENT, Cooling, 913.18907, 1214.54146, 5.83894E-002, 7.76579E-002, BALTIMORE ANN CLG .4% CONDNS WB=>MDB, 7/21 19:00:00, 27.24400, 1.85424E-002, 88.24868, 2.50000, 4.24800E-002, 0.00000
 Zone Sizing Information, G NE APARTMENT, Heating, 1744.49957, 2320.18443, 7.55642E-002, 0.10050, BALTIMORE ANN HTG 99.6% CONDNS DB, 1/21 15:00:00, -11.00000, 1.47100E-003, 88.24868, 2.50000, 4.24800E-002, 0.00000
 Zone Sizing Information, G N1 APARTMENT, Cooling, 717.90999, 954.82029, 4.58996E-002, 6.72455E-002, BALTIMORE ANN CLG .4% CONDNS WB=>MDB, 7/21 19:00:00, 27.24400, 1.85424E-002, 88.24868, 2.50000, 4.24800E-002, 0.00000
 Zone Sizing Information, G N1 APARTMENT, Heating, 1020.06160, 1356.68193, 4.41886E-002, 5.87709E-002, BALTIMORE ANN HTG 99.6% CONDNS DB, 1/21 15:00:00, -11.00000, 1.47100E-003, 88.24868, 2.50000, 4.24800E-002, 0.00000
 Zone Sizing Information, G N2 APARTMENT, Cooling, 711.61738, 946.45112, 4.54973E-002, 6.72455E-002, BALTIMORE ANN CLG .4% CONDNS WB=>MDB, 7/21 19:00:00, 27.24400, 1.85424E-002, 88.24868, 2.50000, 4.24800E-002, 0.00000
 Zone Sizing Information, G N2 APARTMENT, Heating, 1020.09837, 1356.73084, 4.41902E-002, 5.87730E-002, BALTIMORE ANN HTG 99.6% CONDNS DB, 1/21 15:00:00, -11.00000, 1.47100E-003, 88.24868, 2.50000, 4.24800E-002, 0.00000
 Zone Sizing Information, G S1 APARTMENT, Cooling, 764.00662, 1016.12881, 4.88459E-002, 6.72455E-002, BALTIMORE ANN CLG .4% CONDNS WB=>MDB, 7/21 19:00:00, 27.24400, 1.85424E-002, 88.24868, 2.50000, 4.24800E-002, 0.00000
 Zone Sizing Information, G S1 APARTMENT, Heating, 1026.42476, 1365.14492, 4.44643E-002, 5.91375E-002, BALTIMORE ANN HTG 99.6% CONDNS DB, 1/21 15:00:00, -11.00000, 1.47100E-003, 88.24868, 2.50000, 4.24800E-002, 0.00000
 Zone Sizing Information, G S2 APARTMENT, Cooling, 799.23305, 1062.97996, 5.10978E-002, 6.79601E-002, BALTIMORE ANN CLG .4% CONDNS WB=>MDB, 7/21 19:00:00, 27.24400, 1.85424E-002, 88.24868, 2.50000, 4.24800E-002, 0.00000
 Zone Sizing Information, G S2 APARTMENT, Heating, 1058.68694, 1408.05363, 4.58639E-002, 6.09990E-002, BALTIMORE ANN HTG 99.6% CONDNS DB, 1/21 04:10:00, -11.00000, 1.47100E-003, 88.24868, 2.50000, 4.24800E-002, 0.00000
 Zone Sizing Information, M SW APARTMENT, Cooling, 3782.56530, 5030.81185, 0.31267, 0.41585, BALTIMORE ANN CLG .4% CONDNS WB=>MDB, 7/21 18:00:00, 28.80400, 1.85424E-002, 88.24868, 2.50000, 8.49600E-002, 0.00000
 Zone Sizing Information, M SW APARTMENT, Heating, 3400.79809, 4523.06145, 0.14731, 0.19592, BALTIMORE ANN HTG 99.6% CONDNS DB, 1/21 15:00:00, -11.00000, 1.47100E-003, 88.24868, 2.50000, 8.49600E-002, 0.00000
 Zone Sizing Information, M NW APARTMENT, Cooling, 3575.89295, 4755.93763, 0.22862, 0.30407, BALTIMORE ANN CLG .4% CONDNS WB=>MDB, 7/21 18:10:00, 28.54400, 1.85424E-002, 88.24868, 2.50000, 8.49600E-002, 0.00000
 Zone Sizing Information, M NW APARTMENT, Heating, 3405.63121, 4529.48951, 0.14752, 0.19620, BALTIMORE ANN HTG 99.6% CONDNS DB, 1/21 15:00:00, -11.00000, 1.47100E-003, 88.24868, 2.50000, 8.49600E-002, 0.00000
 Zone Sizing Information, M SE APARTMENT, Cooling, 2900.39490, 3857.52521, 0.18543, 0.24662, BALTIMORE ANN CLG .4% CONDNS WB=>MDB, 7/21 18:00:00, 28.80400, 1.85424E-002, 88.24868, 2.50000, 8.49600E-002, 0.00000
 Zone Sizing Information, M SE APARTMENT, Heating, 3400.92405, 4523.22899, 0.14731, 0.19593, BALTIMORE ANN HTG 99.6% CONDNS DB, 1/21 15:00:00, -11.00000, 1.47100E-003, 88.24868, 2.50000, 8.49600E-002, 0.00000
 Zone Sizing Information, M NE APARTMENT, Cooling, 2750.78529, 3658.54443, 0.17588, 0.23392, BALTIMORE ANN CLG .4% CONDNS WB=>MDB, 7/21 18:50:00, 27.50400, 1.85424E-002, 88.24868, 2.50000, 8.49600E-002, 0.00000
 Zone Sizing Information, M NE APARTMENT, Heating, 3405.75725, 4529.65714, 0.14752, 0.19621, BALTIMORE ANN HTG 99.6% CONDNS DB, 1/21 15:00:00, -11.00000, 1.47100E-003, 88.24868, 2.50000, 8.49600E-002, 0.00000
 Zone Sizing Information, M N1 APARTMENT, Cooling, 2258.84003, 3004.25724, 0.14441, 0.19207, BALTIMORE ANN CLG .4% CONDNS WB=>MDB, 7/21 19:00:00, 27.24400, 1.85424E-002, 88.24868, 2.50000, 8.49600E-002, 0.00000
 Zone Sizing Information, M N1 APARTMENT, Heating, 1833.37214, 2438.38494, 7.94208E-002, 0.10563, BALTIMORE ANN HTG 99.6% CONDNS DB, 1/21 15:00:00, -11.00000, 1.47100E-003, 88.24868, 2.50000, 8.49600E-002, 0.00000
 Zone Sizing Information, M N2 APARTMENT, Cooling, 2243.75967, 2984.20037, 0.14345, 0.19079, BALTIMORE ANN CLG .4% CONDNS WB=>MDB, 7/21 19:00:00, 27.24400, 1.85424E-002, 88.24868, 2.50000, 8.49600E-002, 0.00000
 Zone Sizing Information, M N2 APARTMENT, Heating, 1833.37522, 2438.38904, 7.94210E-002, 0.10563, BALTIMORE ANN HTG 99.6% CONDNS DB, 1/21 15:00:00, -11.00000, 1.47100E-003, 88.24868, 2.50000, 8.49600E-002, 0.00000
 Zone Sizing Information, M S1 APARTMENT, Cooling, 2370.23558, 3152.41332, 0.15153, 0.20154, BALTIMORE ANN CLG .4% CONDNS WB=>MDB, 7/21 19:00:00, 27.24400, 1.85424E-002, 88.24868, 2.50000, 8.49600E-002, 0.00000
 Zone Sizing Information, M S1 APARTMENT, Heating, 1830.23584, 2434.21367, 7.92850E-002, 0.10545, BALTIMORE ANN HTG 99.6% CONDNS DB, 1/21 15:00:00, -11.00000, 1.47100E-003, 88.24868, 2.50000, 8.49600E-002, 0.00000
 Zone Sizing Information, M S2 APARTMENT, Cooling, 2354.60624, 3131.62630, 0.15053, 0.20021, BALTIMORE ANN CLG .4% CONDNS WB=>MDB, 7/21 19:00:00, 27.24400, 1.85424E-002, 88.24868, 2.50000, 8.49600E-002, 0.00000
 Zone Sizing Information, M S2 APARTMENT, Heating, 1830.23891, 2434.21774, 7.92851E-002, 0.10545, BALTIMORE ANN HTG 99.6% CONDNS DB, 1/21 15:00:00, -11.00000, 1.47100E-003, 88.24868, 2.50000, 8.49600E-002, 0.00000
 Zone Sizing Information, T SW APARTMENT, Cooling, 2950.79069, 3924.55162, 0.24398, 0.32450, BALTIMORE ANN CLG .4% CONDNS WB=>MDB, 7/21 18:00:00, 28.80400, 1.85424E-002, 88.24868, 2.50000, 4.24800E-002, 0.00000
 Zone Sizing Information, T SW APARTMENT, Heating, 4166.01742, 5540.80317, 0.18040, 0.23994, BALTIMORE ANN HTG 99.6% CONDNS DB, 1/21 15:00:00, -11.00000, 1.47100E-003, 88.24868, 2.50000, 4.24800E-002, 0.00000
 Zone Sizing Information, T NW APARTMENT, Cooling, 2852.02489, 3793.19311, 0.18240, 0.24259, BALTIMORE ANN CLG .4% CONDNS WB=>MDB, 7/21 18:10:00, 28.54400, 1.85424E-002, 88.24868, 2.50000, 4.24800E-002, 0.00000
 Zone Sizing Information, T NW APARTMENT, Heating, 4175.38089, 5553.25658, 0.18081, 0.24048, BALTIMORE ANN HTG 99.6% CONDNS DB, 1/21 15:00:00, -11.00000, 1.47100E-003, 88.24868, 2.50000, 4.24800E-002, 0.00000
 Zone Sizing Information, T SE APARTMENT, Cooling, 2406.92471, 3201.20987, 0.15392, 0.20471, BALTIMORE ANN CLG .4% CONDNS WB=>MDB, 7/21 18:00:00, 28.80400, 1.85424E-002, 88.24868, 2.50000, 4.24800E-002, 0.00000
 Zone Sizing Information, T SE APARTMENT, Heating, 4163.66019, 5537.66805, 0.18030, 0.23980, BALTIMORE ANN HTG 99.6% CONDNS DB, 1/21 15:00:00, -11.00000, 1.47100E-003, 88.24868, 2.50000, 4.24800E-002, 0.00000
 Zone Sizing Information, T NE APARTMENT, Cooling, 2318.39026, 3083.45904, 0.14828, 0.19721, BALTIMORE ANN CLG .4% CONDNS WB=>MDB, 7/21 18:20:00, 28.28400, 1.85424E-002, 88.24868, 2.50000, 4.24800E-002, 0.00000
 Zone Sizing Information, T NE APARTMENT, Heating, 4173.02142, 5550.11849, 0.18071, 0.24034, BALTIMORE ANN HTG 99.6% CONDNS DB, 1/21 15:00:00, -11.00000, 1.47100E-003, 88.24868, 2.50000, 4.24800E-002, 0.00000
 Zone Sizing Information, T N1 APARTMENT, Cooling, 2071.94174, 2755.68252, 0.13251, 0.17624, BALTIMORE ANN CLG .4% CONDNS WB=>MDB, 7/21 18:50:00, 27.50400, 1.85424E-002, 88.24868, 2.50000, 4.24800E-002, 0.00000
 Zone Sizing Information, T N1 APARTMENT, Heating, 3387.06481, 4504.79619, 0.14668, 0.19509, BALTIMORE ANN HTG 99.6% CONDNS DB, 1/21 15:00:00, -11.00000, 1.47100E-003, 88.24868, 2.50000, 4.24800E-002, 0.00000
 Zone Sizing Information, T N2 APARTMENT, Cooling, 2060.99792, 2741.12724, 0.13181, 0.17531, BALTIMORE ANN CLG .4% CONDNS WB=>MDB, 7/21 18:50:00, 27.50400, 1.85424E-002, 88.24868, 2.50000, 4.24800E-002, 0.00000
 Zone Sizing Information, T N2 APARTMENT, Heating, 3387.01555, 4504.73068, 0.14668, 0.19508, BALTIMORE ANN HTG 99.6% CONDNS DB, 1/21 15:00:00, -11.00000, 1.47100E-003, 88.24868, 2.50000, 4.24800E-002, 0.00000
 Zone Sizing Information, T S1 APARTMENT, Cooling, 2137.13422, 2842.38851, 0.13667, 0.18178, BALTIMORE ANN CLG .4% CONDNS WB=>MDB, 7/21 18:20:00, 28.28400, 1.85424E-002, 88.24868, 2.50000, 4.24800E-002, 0.00000
 Zone Sizing Information, T S1 APARTMENT, Heating, 3378.46855, 4493.36317, 0.14631, 0.19459, BALTIMORE ANN HTG 99.6% CONDNS DB, 1/21 15:00:00, -11.00000, 1.47100E-003, 88.24868, 2.50000, 4.24800E-002, 0.00000
 Zone Sizing Information, T S2 APARTMENT, Cooling, 2126.71345, 2828.52889, 0.13601, 0.18089, BALTIMORE ANN CLG .4% CONDNS WB=>MDB, 7/21 18:20:00, 28.28400, 1.85424E-002, 88.24868, 2.50000, 4.24800E-002, 0.00000
 Zone Sizing Information, T S2 APARTMENT, Heating, 3378.41963, 4493.29811, 0.14631, 0.19459, BALTIMORE ANN HTG 99.6% CONDNS DB, 1/21 15:00:00, -11.00000, 1.47100E-003, 88.24868, 2.50000, 4.24800E-002, 0.00000
 Zone Sizing Information, T CORRIDOR, Cooling, 0.00000, 0.00000, 0.00000, 5.91757E-002, BALTIMORE ANN CLG .4% CONDNS WB=>MDB, , 31.30000, 1.85424E-002, 77.65845, 0.00000, 0.00000, 0.00000
 Zone Sizing Information, G CORRIDOR, Cooling, 0.00000, 0.00000, 0.00000, 5.91757E-002, BALTIMORE ANN CLG .4% CONDNS WB=>MDB, , 31.30000, 1.85424E-002, 77.65845, 0.00000, 0.00000, 0.00000
 Zone Sizing Information, M CORRIDOR, Cooling, 0.00000, 0.00000, 0.00000, 0.11835, BALTIMORE ANN CLG .4% CONDNS WB=>MDB, , 31.30000, 1.85424E-002, 77.65845, 0.00000, 0.00000, 0.00000
! <System Sizing Information>, System Name, Load Type, Peak Load Kind, User Design Capacity, Calc Des Air Flow Rate [m3/s], User Des Air Flow Rate [m3/s], Design Day Name, Date/Time of Peak
 System Sizing Information, SPLITSYSTEMAC:01, Cooling, Sensible, 2015.06, 0.11456, 0.11456, BALTIMORE ANN CLG .4% CONDNS WB=>MDB, 7/21 05:00:00
 System Sizing Information, SPLITSYSTEMAC:01, Heating, Sensible, 3930.76, 0.10066, 0.10066, BALTIMORE ANN HTG 99.6% CONDNS DB, 1/21 15:00:00
 System Sizing Information, SPLITSYSTEMAC:10, Cooling, Sensible, 5157.62, 0.30407, 0.30407, BALTIMORE ANN CLG .4% CONDNS WB=>MDB, 7/21 05:00:00
 System Sizing Information, SPLITSYSTEMAC:10, Heating, Sensible, 7745.09, 0.19620, 0.19620, BALTIMORE ANN HTG 99.6% CONDNS DB, 1/21 15:00:00
 System Sizing Information, SPLITSYSTEMAC:11, Cooling, Sensible, 4299.62, 0.24662, 0.24662, BALTIMORE ANN CLG .4% CONDNS WB=>MDB, 7/21 05:00:00
 System Sizing Information, SPLITSYSTEMAC:11, Heating, Sensible, 7738.92, 0.19593, 0.19593, BALTIMORE ANN HTG 99.6% CONDNS DB, 1/21 15:00:00
 System Sizing Information, SPLITSYSTEMAC:12, Cooling, Sensible, 3970.96, 0.23392, 0.23392, BALTIMORE ANN CLG .4% CONDNS WB=>MDB, 7/21 05:00:00
 System Sizing Information, SPLITSYSTEMAC:12, Heating, Sensible, 7745.26, 0.19621, 0.19621, BALTIMORE ANN HTG 99.6% CONDNS DB, 1/21 15:00:00
 System Sizing Information, SPLITSYSTEMAC:13, Cooling, Sensible, 3300.07, 0.19207, 0.19207, BALTIMORE ANN CLG .4% CONDNS WB=>MDB, 7/21 05:00:00
 System Sizing Information, SPLITSYSTEMAC:13, Heating, Sensible, 5684.62, 0.10563, 0.10563, BALTIMORE ANN HTG 99.6% CONDNS DB, 1/21 15:00:00
 System Sizing Information, SPLITSYSTEMAC:14, Cooling, Sensible, 3280.33, 0.19079, 0.19079, BALTIMORE ANN CLG .4% CONDNS WB=>MDB, 7/21 05:00:00
 System Sizing Information, SPLITSYSTEMAC:14, Heating, Sensible, 5684.62, 0.10563, 0.10563, BALTIMORE ANN HTG 99.6% CONDNS DB, 1/21 15:00:00
 System Sizing Information, SPLITSYSTEMAC:15, Cooling, Sensible, 3445.93, 0.20154, 0.20154, BALTIMORE ANN CLG .4% CONDNS WB=>MDB, 7/21 05:00:00
 System Sizing Information, SPLITSYSTEMAC:15, Heating, Sensible, 5680.51, 0.10545, 0.10545, BALTIMORE ANN HTG 99.6% CONDNS DB, 1/21 15:00:00
 System Sizing Information, SPLITSYSTEMAC:16, Cooling, Sensible, 3425.46, 0.20021, 0.20021, BALTIMORE ANN CLG .4% CONDNS WB=>MDB, 7/21 05:00:00
 System Sizing Information, SPLITSYSTEMAC:16, Heating, Sensible, 5680.51, 0.10545, 0.10545, BALTIMORE ANN HTG 99.6% CONDNS DB, 1/21 15:00:00
 System Sizing Information, SPLITSYSTEMAC:17, Cooling, Sensible, 5247.32, 0.32450, 0.32450, BALTIMORE ANN CLG .4% CONDNS WB=>MDB, 7/21 05:00:00
 System Sizing Information, SPLITSYSTEMAC:17, Heating, Sensible, 7100.61, 0.23994, 0.23994, BALTIMORE ANN HTG 99.6% CONDNS DB, 1/21 15:00:00
 System Sizing Information, SPLITSYSTEMAC:18, Cooling, Sensible, 3972.34, 0.24259, 0.24259, BALTIMORE ANN CLG .4% CONDNS WB=>MDB, 7/21 05:00:00
 System Sizing Information, SPLITSYSTEMAC:18, Heating, Sensible, 7112.89, 0.24048, 0.24048, BALTIMORE ANN HTG 99.6% CONDNS DB, 1/21 15:00:00
 System Sizing Information, SPLITSYSTEMAC:19, Cooling, Sensible, 3402.75, 0.20471, 0.20471, BALTIMORE ANN CLG .4% CONDNS WB=>MDB, 7/21 05:00:00
 System Sizing Information, SPLITSYSTEMAC:19, Heating, Sensible, 7097.52, 0.23980, 0.23980, BALTIMORE ANN HTG 99.6% CONDNS DB, 1/21 15:00:00
 System Sizing Information, SPLITSYSTEMAC:02, Cooling, Sensible, 1883.35, 0.10687, 0.10687, BALTIMORE ANN CLG .4% CONDNS WB=>MDB, 7/21 05:00:00
 System Sizing Information, SPLITSYSTEMAC:02, Heating, Sensible, 3924.73, 0.10039, 0.10039, BALTIMORE ANN HTG 99.6% CONDNS DB, 1/21 15:00:00
 System Sizing Information, SPLITSYSTEMAC:20, Cooling, Sensible, 3260.33, 0.19721, 0.19721, BALTIMORE ANN CLG .4% CONDNS WB=>MDB, 7/21 05:00:00
 System Sizing Information, SPLITSYSTEMAC:20, Heating, Sensible, 7109.79, 0.24034, 0.24034, BALTIMORE ANN HTG 99.6% CONDNS DB, 1/21 15:00:00
 System Sizing Information, SPLITSYSTEMAC:21, Cooling, Sensible, 2897.75, 0.17624, 0.17624, BALTIMORE ANN CLG .4% CONDNS WB=>MDB, 7/21 05:00:00
 System Sizing Information, SPLITSYSTEMAC:21, Heating, Sensible, 6079.77, 0.19509, 0.19509, BALTIMORE ANN HTG 99.6% CONDNS DB, 1/21 15:00:00
 System Sizing Information, SPLITSYSTEMAC:22, Cooling, Sensible, 2883.42, 0.17531, 0.17531, BALTIMORE ANN CLG .4% CONDNS WB=>MDB, 7/21 05:00:00
 System Sizing Information, SPLITSYSTEMAC:22, Heating, Sensible, 6079.70, 0.19508, 0.19508, BALTIMORE ANN HTG 99.6% CONDNS DB, 1/21 15:00:00
 System Sizing Information, SPLITSYSTEMAC:23, Cooling, Sensible, 3022.94, 0.18178, 0.18178, BALTIMORE ANN CLG .4% CONDNS WB=>MDB, 7/21 05:00:00
 System Sizing Information, SPLITSYSTEMAC:23, Heating, Sensible, 6068.50, 0.19459, 0.19459, BALTIMORE ANN HTG 99.6% CONDNS DB, 1/21 15:00:00
 System Sizing Information, SPLITSYSTEMAC:24, Cooling, Sensible, 3009.29, 0.18089, 0.18089, BALTIMORE ANN CLG .4% CONDNS WB=>MDB, 7/21 05:00:00
 System Sizing Information, SPLITSYSTEMAC:24, Heating, Sensible, 6068.44, 0.19459, 0.19459, BALTIMORE ANN HTG 99.6% CONDNS DB, 1/21 15:00:00
 System Sizing Information, SPLITSYSTEMAC:03, Cooling, Sensible, 3026.87, 0.19282, 0.19282, BALTIMORE ANN CLG .4% CONDNS WB=>MDB, 7/21 05:00:00
 System Sizing Information, SPLITSYSTEMAC:03, Heating, Sensible, 4747.00, 0.17385, 0.17385, BALTIMORE ANN HTG 99.6% CONDNS DB, 1/21 09:00:00
 System Sizing Information, SPLITSYSTEMAC:04, Cooling, Sensible, 1366.97, 7.76579E-002, 7.76579E-002, BALTIMORE ANN CLG .4% CONDNS WB=>MDB, 7/21 05:00:00
 System Sizing Information, SPLITSYSTEMAC:04, Heating, Sensible, 3927.18, 0.10050, 0.10050, BALTIMORE ANN HTG 99.6% CONDNS DB, 1/21 15:00:00
 System Sizing Information, SPLITSYSTEMAC:05, Cooling, Sensible, 1206.67, 6.72455E-002, 6.72455E-002, BALTIMORE ANN CLG .4% CONDNS WB=>MDB, 7/21 05:00:00
 System Sizing Information, SPLITSYSTEMAC:05, Heating, Sensible, 2977.80, 5.87709E-002, 5.87709E-002, BALTIMORE ANN HTG 99.6% CONDNS DB, 1/21 15:00:00
 System Sizing Information, SPLITSYSTEMAC:06, Cooling, Sensible, 1206.67, 6.72455E-002, 6.72455E-002, BALTIMORE ANN CLG .4% CONDNS WB=>MDB, 7/21 05:00:00
 System Sizing Information, SPLITSYSTEMAC:06, Heating, Sensible, 2977.84, 5.87730E-002, 5.87730E-002, BALTIMORE ANN HTG 99.6% CONDNS DB, 1/21 15:00:00
 System Sizing Information, SPLITSYSTEMAC:07, Cooling, Sensible, 1206.68, 6.72455E-002, 6.72455E-002, BALTIMORE ANN CLG .4% CONDNS WB=>MDB, 7/21 05:00:00
 System Sizing Information, SPLITSYSTEMAC:07, Heating, Sensible, 2986.14, 5.91375E-002, 5.91375E-002, BALTIMORE ANN HTG 99.6% CONDNS DB, 1/21 15:00:00
 System Sizing Information, SPLITSYSTEMAC:08, Cooling, Sensible, 1217.69, 6.79601E-002, 6.79601E-002, BALTIMORE ANN CLG .4% CONDNS WB=>MDB, 7/21 05:00:00
 System Sizing Information, SPLITSYSTEMAC:08, Heating, Sensible, 3028.46, 6.09990E-002, 6.09990E-002, BALTIMORE ANN HTG 99.6% CONDNS DB, 1/21 04:10:00
 System Sizing Information, SPLITSYSTEMAC:09, Cooling, Sensible, 6905.98, 0.41585, 0.41585, BALTIMORE ANN CLG .4% CONDNS WB=>MDB, 7/21 05:00:00
 System Sizing Information, SPLITSYSTEMAC:09, Heating, Sensible, 7738.76, 0.19592, 0.19592, BALTIMORE ANN HTG 99.6% CONDNS DB, 1/21 15:00:00
! <Component Sizing Information>, Component Type, Component Name, Input Field Description, Value
 Component Sizing Information, AirTerminal:SingleDuct:Uncontrolled, G SW APARTMENT DIRECT AIR, Design Size Maximum Air Flow Rate [m3/s], 0.11456
 Component Sizing Information, AirTerminal:SingleDuct:Uncontrolled, G NW APARTMENT DIRECT AIR, Design Size Maximum Air Flow Rate [m3/s], 0.10687
 Component Sizing Information, AirTerminal:SingleDuct:Uncontrolled, OFFICE DIRECT AIR, Design Size Maximum Air Flow Rate [m3/s], 0.19282
 Component Sizing Information, AirTerminal:SingleDuct:Uncontrolled, G NE APARTMENT DIRECT AIR, Design Size Maximum Air Flow Rate [m3/s], 0.10050
 Component Sizing Information, AirTerminal:SingleDuct:Uncontrolled, G N1 APARTMENT DIRECT AIR, Design Size Maximum Air Flow Rate [m3/s], 6.72455E-002
 Component Sizing Information, AirTerminal:SingleDuct:Uncontrolled, G N2 APARTMENT DIRECT AIR, Design Size Maximum Air Flow Rate [m3/s], 6.72455E-002
 Component Sizing Information, AirTerminal:SingleDuct:Uncontrolled, G S1 APARTMENT DIRECT AIR, Design Size Maximum Air Flow Rate [m3/s], 6.72455E-002
 Component Sizing Information, AirTerminal:SingleDuct:Uncontrolled, G S2 APARTMENT DIRECT AIR, Design Size Maximum Air Flow Rate [m3/s], 6.79601E-002
 Component Sizing Information, AirTerminal:SingleDuct:Uncontrolled, M SW APARTMENT DIRECT AIR, Design Size Maximum Air Flow Rate [m3/s], 0.41585
 Component Sizing Information, AirTerminal:SingleDuct:Uncontrolled, M NW APARTMENT DIRECT AIR, Design Size Maximum Air Flow Rate [m3/s], 0.30407
 Component Sizing Information, AirTerminal:SingleDuct:Uncontrolled, M SE APARTMENT DIRECT AIR, Design Size Maximum Air Flow Rate [m3/s], 0.24662
 Component Sizing Information, AirTerminal:SingleDuct:Uncontrolled, M NE APARTMENT DIRECT AIR, Design Size Maximum Air Flow Rate [m3/s], 0.23392
 Component Sizing Information, AirTerminal:SingleDuct:Uncontrolled, M N1 APARTMENT DIRECT AIR, Design Size Maximum Air Flow Rate [m3/s], 0.19207
 Component Sizing Information, AirTerminal:SingleDuct:Uncontrolled, M N2 APARTMENT DIRECT AIR, Design Size Maximum Air Flow Rate [m3/s], 0.19079
 Component Sizing Information, AirTerminal:SingleDuct:Uncontrolled, M S1 APARTMENT DIRECT AIR, Design Size Maximum Air Flow Rate [m3/s], 0.20154
 Component Sizing Information, AirTerminal:SingleDuct:Uncontrolled, M S2 APARTMENT DIRECT AIR, Design Size Maximum Air Flow Rate [m3/s], 0.20021
 Component Sizing Information, AirTerminal:SingleDuct:Uncontrolled, T SW APARTMENT DIRECT AIR, Design Size Maximum Air Flow Rate [m3/s], 0.32450
 Component Sizing Information, AirTerminal:SingleDuct:Uncontrolled, T NW APARTMENT DIRECT AIR, Design Size Maximum Air Flow Rate [m3/s], 0.24259
 Component Sizing Information, AirTerminal:SingleDuct:Uncontrolled, T SE APARTMENT DIRECT AIR, Design Size Maximum Air Flow Rate [m3/s], 0.23980
 Component Sizing Information, AirTerminal:SingleDuct:Uncontrolled, T NE APARTMENT DIRECT AIR, Design Size Maximum Air Flow Rate [m3/s], 0.24034
 Component Sizing Information, AirTerminal:SingleDuct:Uncontrolled, T N1 APARTMENT DIRECT AIR, Design Size Maximum Air Flow Rate [m3/s], 0.19509
 Component Sizing Information, AirTerminal:SingleDuct:Uncontrolled, T N2 APARTMENT DIRECT AIR, Design Size Maximum Air Flow Rate [m3/s], 0.19508
 Component Sizing Information, AirTerminal:SingleDuct:Uncontrolled, T S1 APARTMENT DIRECT AIR, Design Size Maximum Air Flow Rate [m3/s], 0.19459
 Component Sizing Information, AirTerminal:SingleDuct:Uncontrolled, T S2 APARTMENT DIRECT AIR, Design Size Maximum Air Flow Rate [m3/s], 0.19459
 Component Sizing Information, ZoneHVAC:UnitHeater, T CORRIDOR UNIT HEATER, Design Size Maximum Supply Air Flow Rate [m3/s], 0.00000
 Component Sizing Information, Fan:ConstantVolume, T CORRIDOR UNIT HEATERFAN, Design Size Maximum Flow Rate [m3/s], 0.00000
 Component Sizing Information, Coil:Heating:Electric, T CORRIDOR UNIT HEATER COIL, Design Size Nominal Capacity [W], 0.00000
 Component Sizing Information, ZoneHVAC:UnitHeater, G CORRIDOR UNIT HEATER, Design Size Maximum Supply Air Flow Rate [m3/s], 0.00000
 Component Sizing Information, Fan:ConstantVolume, G CORRIDOR UNIT HEATERFAN, Design Size Maximum Flow Rate [m3/s], 0.00000
 Component Sizing Information, Coil:Heating:Electric, G CORRIDOR UNIT HEATER COIL, Design Size Nominal Capacity [W], 0.00000
 Component Sizing Information, ZoneHVAC:UnitHeater, M CORRIDOR UNIT HEATER, Design Size Maximum Supply Air Flow Rate [m3/s], 0.00000
 Component Sizing Information, Fan:ConstantVolume, M CORRIDOR UNIT HEATERFAN, Design Size Maximum Flow Rate [m3/s], 0.00000
 Component Sizing Information, Coil:Heating:Electric, M CORRIDOR UNIT HEATER COIL, Design Size Nominal Capacity [W], 0.00000
 Component Sizing Information, AirLoopHVAC, SPLITSYSTEMAC:01, Design Supply Air Flow Rate [m3/s], 0.11456
 Component Sizing Information, AirLoopHVAC, SPLITSYSTEMAC:10, Design Supply Air Flow Rate [m3/s], 0.30407
 Component Sizing Information, AirLoopHVAC, SPLITSYSTEMAC:11, Design Supply Air Flow Rate [m3/s], 0.24662
 Component Sizing Information, AirLoopHVAC, SPLITSYSTEMAC:12, Design Supply Air Flow Rate [m3/s], 0.23392
 Component Sizing Information, AirLoopHVAC, SPLITSYSTEMAC:13, Design Supply Air Flow Rate [m3/s], 0.19207
 Component Sizing Information, AirLoopHVAC, SPLITSYSTEMAC:14, Design Supply Air Flow Rate [m3/s], 0.19079
 Component Sizing Information, AirLoopHVAC, SPLITSYSTEMAC:15, Design Supply Air Flow Rate [m3/s], 0.20154
 Component Sizing Information, AirLoopHVAC, SPLITSYSTEMAC:16, Design Supply Air Flow Rate [m3/s], 0.20021
 Component Sizing Information, AirLoopHVAC, SPLITSYSTEMAC:17, Design Supply Air Flow Rate [m3/s], 0.32450
 Component Sizing Information, AirLoopHVAC, SPLITSYSTEMAC:18, Design Supply Air Flow Rate [m3/s], 0.24259
 Component Sizing Information, AirLoopHVAC, SPLITSYSTEMAC:19, Design Supply Air Flow Rate [m3/s], 0.23980
 Component Sizing Information, AirLoopHVAC, SPLITSYSTEMAC:02, Design Supply Air Flow Rate [m3/s], 0.10687
 Component Sizing Information, AirLoopHVAC, SPLITSYSTEMAC:20, Design Supply Air Flow Rate [m3/s], 0.24034
 Component Sizing Information, AirLoopHVAC, SPLITSYSTEMAC:21, Design Supply Air Flow Rate [m3/s], 0.19509
 Component Sizing Information, AirLoopHVAC, SPLITSYSTEMAC:22, Design Supply Air Flow Rate [m3/s], 0.19508
 Component Sizing Information, AirLoopHVAC, SPLITSYSTEMAC:23, Design Supply Air Flow Rate [m3/s], 0.19459
 Component Sizing Information, AirLoopHVAC, SPLITSYSTEMAC:24, Design Supply Air Flow Rate [m3/s], 0.19459
 Component Sizing Information, AirLoopHVAC, SPLITSYSTEMAC:03, Design Supply Air Flow Rate [m3/s], 0.19282
 Component Sizing Information, AirLoopHVAC, SPLITSYSTEMAC:04, Design Supply Air Flow Rate [m3/s], 0.10050
 Component Sizing Information, AirLoopHVAC, SPLITSYSTEMAC:05, Design Supply Air Flow Rate [m3/s], 6.72455E-002
 Component Sizing Information, AirLoopHVAC, SPLITSYSTEMAC:06, Design Supply Air Flow Rate [m3/s], 6.72455E-002
 Component Sizing Information, AirLoopHVAC, SPLITSYSTEMAC:07, Design Supply Air Flow Rate [m3/s], 6.72455E-002
 Component Sizing Information, AirLoopHVAC, SPLITSYSTEMAC:08, Design Supply Air Flow Rate [m3/s], 6.79601E-002
 Component Sizing Information, AirLoopHVAC, SPLITSYSTEMAC:09, Design Supply Air Flow Rate [m3/s], 0.41585
 Component Sizing Information, Controller:OutdoorAir, SPLITSYSTEMAC:01_OA_CONTROLLER, Maximum Outdoor Air Flow Rate [m3/s], 0.11456
 Component Sizing Information, Controller:OutdoorAir, SPLITSYSTEMAC:01_OA_CONTROLLER, Minimum Outdoor Air Flow Rate [m3/s], 4.24800E-002
 Component Sizing Information, Coil:Cooling:DX:SingleSpeed, SPLITSYSTEMAC:01_UNITARY_PACKAGE_COOLCOIL, Design Size Rated Air Flow Rate [m3/s], 0.11456
 Component Sizing Information, Coil:Cooling:DX:SingleSpeed, SPLITSYSTEMAC:01_UNITARY_PACKAGE_COOLCOIL, Design Size Gross Rated Total Cooling Capacity [W], 2844.78782
 Component Sizing Information, Coil:Cooling:DX:SingleSpeed, SPLITSYSTEMAC:01_UNITARY_PACKAGE_COOLCOIL, Design Size Gross Rated Sensible Heat Ratio, 0.69808
! <DX Cooling Coil Standard Rating Information>, Component Type, Component Name, Standard Rating (Net) Cooling Capacity {W}, Standard Rated Net COP {W/W}, EER {Btu/W-h}, SEER {Btu/W-h}, IEER {Btu/W-h}
 DX Cooling Coil Standard Rating Information, Coil:Cooling:DX:SingleSpeed, SPLITSYSTEMAC:01_UNITARY_PACKAGE_COOLCOIL, 2755.9, 3.19, 10.88, 12.53, 12.16
 Component Sizing Information, AirLoopHVAC:UnitaryHeatCool, SPLITSYSTEMAC:01_UNITARY_PACKAGE, Supply Air Flow Rate [m3/s], 0.11456
 Component Sizing Information, AirLoopHVAC:UnitaryHeatCool, SPLITSYSTEMAC:01_UNITARY_PACKAGE, Supply Air Flow Rate During Heating Operation [m3/s], 0.11456
 Component Sizing Information, AirLoopHVAC:UnitaryHeatCool, SPLITSYSTEMAC:01_UNITARY_PACKAGE, Supply Air Flow Rate During Cooling Operation [m3/s], 0.11456
 Component Sizing Information, AirLoopHVAC:UnitaryHeatCool, SPLITSYSTEMAC:01_UNITARY_PACKAGE, Supply Air Flow Rate When No Cooling or Heating is Needed [m3/s], 0.11456
 Component Sizing Information, AirLoopHVAC:UnitaryHeatCool, SPLITSYSTEMAC:01_UNITARY_PACKAGE, Nominal Heating Capacity [W], 3930.75844
 Component Sizing Information, AirLoopHVAC:UnitaryHeatCool, SPLITSYSTEMAC:01_UNITARY_PACKAGE, Nominal Cooling Capacity [W], 2844.78782
 Component Sizing Information, AirLoopHVAC:UnitaryHeatCool, SPLITSYSTEMAC:01_UNITARY_PACKAGE, Maximum Supply Air Temperature from Supplemental Heater [C], 40.00000
 Component Sizing Information, AirLoopHVAC:UnitaryHeatCool, SPLITSYSTEMAC:01_UNITARY_PACKAGE, Fraction of Supply Air Flow That Goes Through the Controlling Zone, 1.00000
 Component Sizing Information, Fan:OnOff, SPLITSYSTEMAC:01_UNITARY_PACKAGE_FAN, Design Size Maximum Flow Rate [m3/s], 0.11456
 Component Sizing Information, Coil:Heating:Fuel, SPLITSYSTEMAC:01_UNITARY_PACKAGE_HEATCOIL, Design Size Nominal Capacity [W], 3930.75844
 Component Sizing Information, Controller:OutdoorAir, SPLITSYSTEMAC:10_OA_CONTROLLER, Maximum Outdoor Air Flow Rate [m3/s], 0.30407
 Component Sizing Information, Controller:OutdoorAir, SPLITSYSTEMAC:10_OA_CONTROLLER, Minimum Outdoor Air Flow Rate [m3/s], 8.49600E-002
 Component Sizing Information, Coil:Cooling:DX:SingleSpeed, SPLITSYSTEMAC:10_UNITARY_PACKAGE_COOLCOIL, Design Size Rated Air Flow Rate [m3/s], 0.30407
 Component Sizing Information, Coil:Cooling:DX:SingleSpeed, SPLITSYSTEMAC:10_UNITARY_PACKAGE_COOLCOIL, Design Size Gross Rated Total Cooling Capacity [W], 7550.72335
 Component Sizing Information, Coil:Cooling:DX:SingleSpeed, SPLITSYSTEMAC:10_UNITARY_PACKAGE_COOLCOIL, Design Size Gross Rated Sensible Heat Ratio, 0.69808
 DX Cooling Coil Standard Rating Information, Coil:Cooling:DX:SingleSpeed, SPLITSYSTEMAC:10_UNITARY_PACKAGE_COOLCOIL, 7314.8, 3.19, 10.88, 12.53, 12.16
 Component Sizing Information, AirLoopHVAC:UnitaryHeatCool, SPLITSYSTEMAC:10_UNITARY_PACKAGE, Supply Air Flow Rate [m3/s], 0.30407
 Component Sizing Information, AirLoopHVAC:UnitaryHeatCool, SPLITSYSTEMAC:10_UNITARY_PACKAGE, Supply Air Flow Rate During Heating Operation [m3/s], 0.30407
 Component Sizing Information, AirLoopHVAC:UnitaryHeatCool, SPLITSYSTEMAC:10_UNITARY_PACKAGE, Supply Air Flow Rate During Cooling Operation [m3/s], 0.30407
 Component Sizing Information, AirLoopHVAC:UnitaryHeatCool, SPLITSYSTEMAC:10_UNITARY_PACKAGE, Supply Air Flow Rate When No Cooling or Heating is Needed [m3/s], 0.30407
 Component Sizing Information, AirLoopHVAC:UnitaryHeatCool, SPLITSYSTEMAC:10_UNITARY_PACKAGE, Nominal Heating Capacity [W], 7745.09007
 Component Sizing Information, AirLoopHVAC:UnitaryHeatCool, SPLITSYSTEMAC:10_UNITARY_PACKAGE, Nominal Cooling Capacity [W], 7550.72335
 Component Sizing Information, AirLoopHVAC:UnitaryHeatCool, SPLITSYSTEMAC:10_UNITARY_PACKAGE, Maximum Supply Air Temperature from Supplemental Heater [C], 40.00000
 Component Sizing Information, AirLoopHVAC:UnitaryHeatCool, SPLITSYSTEMAC:10_UNITARY_PACKAGE, Fraction of Supply Air Flow That Goes Through the Controlling Zone, 1.00000
 Component Sizing Information, Fan:OnOff, SPLITSYSTEMAC:10_UNITARY_PACKAGE_FAN, Design Size Maximum Flow Rate [m3/s], 0.30407
 Component Sizing Information, Coil:Heating:Fuel, SPLITSYSTEMAC:10_UNITARY_PACKAGE_HEATCOIL, Design Size Nominal Capacity [W], 7745.09007
 Component Sizing Information, Controller:OutdoorAir, SPLITSYSTEMAC:11_OA_CONTROLLER, Maximum Outdoor Air Flow Rate [m3/s], 0.24662
 Component Sizing Information, Controller:OutdoorAir, SPLITSYSTEMAC:11_OA_CONTROLLER, Minimum Outdoor Air Flow Rate [m3/s], 8.49600E-002
 Component Sizing Information, Coil:Cooling:DX:SingleSpeed, SPLITSYSTEMAC:11_UNITARY_PACKAGE_COOLCOIL, Design Size Rated Air Flow Rate [m3/s], 0.24662
 Component Sizing Information, Coil:Cooling:DX:SingleSpeed, SPLITSYSTEMAC:11_UNITARY_PACKAGE_COOLCOIL, Design Size Gross Rated Total Cooling Capacity [W], 6124.09638
 Component Sizing Information, Coil:Cooling:DX:SingleSpeed, SPLITSYSTEMAC:11_UNITARY_PACKAGE_COOLCOIL, Design Size Gross Rated Sensible Heat Ratio, 0.69808
 DX Cooling Coil Standard Rating Information, Coil:Cooling:DX:SingleSpeed, SPLITSYSTEMAC:11_UNITARY_PACKAGE_COOLCOIL, 5932.8, 3.19, 10.88, 12.53, 12.16
 Component Sizing Information, AirLoopHVAC:UnitaryHeatCool, SPLITSYSTEMAC:11_UNITARY_PACKAGE, Supply Air Flow Rate [m3/s], 0.24662
 Component Sizing Information, AirLoopHVAC:UnitaryHeatCool, SPLITSYSTEMAC:11_UNITARY_PACKAGE, Supply Air Flow Rate During Heating Operation [m3/s], 0.24662
 Component Sizing Information, AirLoopHVAC:UnitaryHeatCool, SPLITSYSTEMAC:11_UNITARY_PACKAGE, Supply Air Flow Rate During Cooling Operation [m3/s], 0.24662
 Component Sizing Information, AirLoopHVAC:UnitaryHeatCool, SPLITSYSTEMAC:11_UNITARY_PACKAGE, Supply Air Flow Rate When No Cooling or Heating is Needed [m3/s], 0.24662
 Component Sizing Information, AirLoopHVAC:UnitaryHeatCool, SPLITSYSTEMAC:11_UNITARY_PACKAGE, Nominal Heating Capacity [W], 7738.92076
 Component Sizing Information, AirLoopHVAC:UnitaryHeatCool, SPLITSYSTEMAC:11_UNITARY_PACKAGE, Nominal Cooling Capacity [W], 6124.09638
 Component Sizing Information, AirLoopHVAC:UnitaryHeatCool, SPLITSYSTEMAC:11_UNITARY_PACKAGE, Maximum Supply Air Temperature from Supplemental Heater [C], 40.00000
 Component Sizing Information, AirLoopHVAC:UnitaryHeatCool, SPLITSYSTEMAC:11_UNITARY_PACKAGE, Fraction of Supply Air Flow That Goes Through the Controlling Zone, 1.00000
 Component Sizing Information, Fan:OnOff, SPLITSYSTEMAC:11_UNITARY_PACKAGE_FAN, Design Size Maximum Flow Rate [m3/s], 0.24662
 Component Sizing Information, Coil:Heating:Fuel, SPLITSYSTEMAC:11_UNITARY_PACKAGE_HEATCOIL, Design Size Nominal Capacity [W], 7738.92076
 Component Sizing Information, Controller:OutdoorAir, SPLITSYSTEMAC:12_OA_CONTROLLER, Maximum Outdoor Air Flow Rate [m3/s], 0.23392
 Component Sizing Information, Controller:OutdoorAir, SPLITSYSTEMAC:12_OA_CONTROLLER, Minimum Outdoor Air Flow Rate [m3/s], 8.49600E-002
 Component Sizing Information, Coil:Cooling:DX:SingleSpeed, SPLITSYSTEMAC:12_UNITARY_PACKAGE_COOLCOIL, Design Size Rated Air Flow Rate [m3/s], 0.23392
 Component Sizing Information, Coil:Cooling:DX:SingleSpeed, SPLITSYSTEMAC:12_UNITARY_PACKAGE_COOLCOIL, Design Size Gross Rated Total Cooling Capacity [W], 5808.89699
 Component Sizing Information, Coil:Cooling:DX:SingleSpeed, SPLITSYSTEMAC:12_UNITARY_PACKAGE_COOLCOIL, Design Size Gross Rated Sensible Heat Ratio, 0.69808
 DX Cooling Coil Standard Rating Information, Coil:Cooling:DX:SingleSpeed, SPLITSYSTEMAC:12_UNITARY_PACKAGE_COOLCOIL, 5627.4, 3.19, 10.88, 12.53, 12.16
 Component Sizing Information, AirLoopHVAC:UnitaryHeatCool, SPLITSYSTEMAC:12_UNITARY_PACKAGE, Supply Air Flow Rate [m3/s], 0.23392
 Component Sizing Information, AirLoopHVAC:UnitaryHeatCool, SPLITSYSTEMAC:12_UNITARY_PACKAGE, Supply Air Flow Rate During Heating Operation [m3/s], 0.23392
 Component Sizing Information, AirLoopHVAC:UnitaryHeatCool, SPLITSYSTEMAC:12_UNITARY_PACKAGE, Supply Air Flow Rate During Cooling Operation [m3/s], 0.23392
 Component Sizing Information, AirLoopHVAC:UnitaryHeatCool, SPLITSYSTEMAC:12_UNITARY_PACKAGE, Supply Air Flow Rate When No Cooling or Heating is Needed [m3/s], 0.23392
 Component Sizing Information, AirLoopHVAC:UnitaryHeatCool, SPLITSYSTEMAC:12_UNITARY_PACKAGE, Nominal Heating Capacity [W], 7745.25526
 Component Sizing Information, AirLoopHVAC:UnitaryHeatCool, SPLITSYSTEMAC:12_UNITARY_PACKAGE, Nominal Cooling Capacity [W], 5808.89699
 Component Sizing Information, AirLoopHVAC:UnitaryHeatCool, SPLITSYSTEMAC:12_UNITARY_PACKAGE, Maximum Supply Air Temperature from Supplemental Heater [C], 40.00000
 Component Sizing Information, AirLoopHVAC:UnitaryHeatCool, SPLITSYSTEMAC:12_UNITARY_PACKAGE, Fraction of Supply Air Flow That Goes Through the Controlling Zone, 1.00000
 Component Sizing Information, Fan:OnOff, SPLITSYSTEMAC:12_UNITARY_PACKAGE_FAN, Design Size Maximum Flow Rate [m3/s], 0.23392
 Component Sizing Information, Coil:Heating:Fuel, SPLITSYSTEMAC:12_UNITARY_PACKAGE_HEATCOIL, Design Size Nominal Capacity [W], 7745.25526
 Component Sizing Information, Controller:OutdoorAir, SPLITSYSTEMAC:13_OA_CONTROLLER, Maximum Outdoor Air Flow Rate [m3/s], 0.19207
 Component Sizing Information, Controller:OutdoorAir, SPLITSYSTEMAC:13_OA_CONTROLLER, Minimum Outdoor Air Flow Rate [m3/s], 8.49600E-002
 Component Sizing Information, Coil:Cooling:DX:SingleSpeed, SPLITSYSTEMAC:13_UNITARY_PACKAGE_COOLCOIL, Design Size Rated Air Flow Rate [m3/s], 0.19207
 Component Sizing Information, Coil:Cooling:DX:SingleSpeed, SPLITSYSTEMAC:13_UNITARY_PACKAGE_COOLCOIL, Design Size Gross Rated Total Cooling Capacity [W], 4769.56296
 Component Sizing Information, Coil:Cooling:DX:SingleSpeed, SPLITSYSTEMAC:13_UNITARY_PACKAGE_COOLCOIL, Design Size Gross Rated Sensible Heat Ratio, 0.69808
 DX Cooling Coil Standard Rating Information, Coil:Cooling:DX:SingleSpeed, SPLITSYSTEMAC:13_UNITARY_PACKAGE_COOLCOIL, 4620.6, 3.19, 10.88, 12.53, 12.16
 Component Sizing Information, AirLoopHVAC:UnitaryHeatCool, SPLITSYSTEMAC:13_UNITARY_PACKAGE, Supply Air Flow Rate [m3/s], 0.19207
 Component Sizing Information, AirLoopHVAC:UnitaryHeatCool, SPLITSYSTEMAC:13_UNITARY_PACKAGE, Supply Air Flow Rate During Heating Operation [m3/s], 0.19207
 Component Sizing Information, AirLoopHVAC:UnitaryHeatCool, SPLITSYSTEMAC:13_UNITARY_PACKAGE, Supply Air Flow Rate During Cooling Operation [m3/s], 0.19207
 Component Sizing Information, AirLoopHVAC:UnitaryHeatCool, SPLITSYSTEMAC:13_UNITARY_PACKAGE, Supply Air Flow Rate When No Cooling or Heating is Needed [m3/s], 0.19207
[...]
 Component Sizing Information, Coil:Heating:Fuel, SPLITSYSTEMAC:04_UNITARY_PACKAGE_HEATCOIL, Design Size Nominal Capacity [W], 3927.17791
 Component Sizing Information, Controller:OutdoorAir, SPLITSYSTEMAC:05_OA_CONTROLLER, Maximum Outdoor Air Flow Rate [m3/s], 6.72455E-002
 Component Sizing Information, Controller:OutdoorAir, SPLITSYSTEMAC:05_OA_CONTROLLER, Minimum Outdoor Air Flow Rate [m3/s], 4.24800E-002
 Component Sizing Information, Coil:Cooling:DX:SingleSpeed, SPLITSYSTEMAC:05_UNITARY_PACKAGE_COOLCOIL, Design Size Rated Air Flow Rate [m3/s], 6.72455E-002
 Component Sizing Information, Coil:Cooling:DX:SingleSpeed, SPLITSYSTEMAC:05_UNITARY_PACKAGE_COOLCOIL, Design Size Gross Rated Total Cooling Capacity [W], 1669.86582
 Component Sizing Information, Coil:Cooling:DX:SingleSpeed, SPLITSYSTEMAC:05_UNITARY_PACKAGE_COOLCOIL, Design Size Gross Rated Sensible Heat Ratio, 0.69808
 DX Cooling Coil Standard Rating Information, Coil:Cooling:DX:SingleSpeed, SPLITSYSTEMAC:05_UNITARY_PACKAGE_COOLCOIL, 1617.7, 3.19, 10.88, 12.53, 12.16
 Component Sizing Information, AirLoopHVAC:UnitaryHeatCool, SPLITSYSTEMAC:05_UNITARY_PACKAGE, Supply Air Flow Rate [m3/s], 6.72455E-002
 Component Sizing Information, AirLoopHVAC:UnitaryHeatCool, SPLITSYSTEMAC:05_UNITARY_PACKAGE, Supply Air Flow Rate During Heating Operation [m3/s], 6.72455E-002
 Component Sizing Information, AirLoopHVAC:UnitaryHeatCool, SPLITSYSTEMAC:05_UNITARY_PACKAGE, Supply Air Flow Rate During Cooling Operation [m3/s], 6.72455E-002
 Component Sizing Information, AirLoopHVAC:UnitaryHeatCool, SPLITSYSTEMAC:05_UNITARY_PACKAGE, Supply Air Flow Rate When No Cooling or Heating is Needed [m3/s], 6.72455E-002
 Component Sizing Information, AirLoopHVAC:UnitaryHeatCool, SPLITSYSTEMAC:05_UNITARY_PACKAGE, Nominal Heating Capacity [W], 2977.79560
 Component Sizing Information, AirLoopHVAC:UnitaryHeatCool, SPLITSYSTEMAC:05_UNITARY_PACKAGE, Nominal Cooling Capacity [W], 1669.86582
 Component Sizing Information, AirLoopHVAC:UnitaryHeatCool, SPLITSYSTEMAC:05_UNITARY_PACKAGE, Maximum Supply Air Temperature from Supplemental Heater [C], 40.00000
 Component Sizing Information, AirLoopHVAC:UnitaryHeatCool, SPLITSYSTEMAC:05_UNITARY_PACKAGE, Fraction of Supply Air Flow That Goes Through the Controlling Zone, 1.00000
 Component Sizing Information, Fan:OnOff, SPLITSYSTEMAC:05_UNITARY_PACKAGE_FAN, Design Size Maximum Flow Rate [m3/s], 6.72455E-002
 Component Sizing Information, Coil:Heating:Fuel, SPLITSYSTEMAC:05_UNITARY_PACKAGE_HEATCOIL, Design Size Nominal Capacity [W], 2977.79560
 Component Sizing Information, Controller:OutdoorAir, SPLITSYSTEMAC:06_OA_CONTROLLER, Maximum Outdoor Air Flow Rate [m3/s], 6.72455E-002
 Component Sizing Information, Controller:OutdoorAir, SPLITSYSTEMAC:06_OA_CONTROLLER, Minimum Outdoor Air Flow Rate [m3/s], 4.24800E-002
 Component Sizing Information, Coil:Cooling:DX:SingleSpeed, SPLITSYSTEMAC:06_UNITARY_PACKAGE_COOLCOIL, Design Size Rated Air Flow Rate [m3/s], 6.72455E-002
 Component Sizing Information, Coil:Cooling:DX:SingleSpeed, SPLITSYSTEMAC:06_UNITARY_PACKAGE_COOLCOIL, Design Size Gross Rated Total Cooling Capacity [W], 1669.86582
 Component Sizing Information, Coil:Cooling:DX:SingleSpeed, SPLITSYSTEMAC:06_UNITARY_PACKAGE_COOLCOIL, Design Size Gross Rated Sensible Heat Ratio, 0.69808
 DX Cooling Coil Standard Rating Information, Coil:Cooling:DX:SingleSpeed, SPLITSYSTEMAC:06_UNITARY_PACKAGE_COOLCOIL, 1617.7, 3.19, 10.88, 12.53, 12.16
 Component Sizing Information, AirLoopHVAC:UnitaryHeatCool, SPLITSYSTEMAC:06_UNITARY_PACKAGE, Supply Air Flow Rate [m3/s], 6.72455E-002
 Component Sizing Information, AirLoopHVAC:UnitaryHeatCool, SPLITSYSTEMAC:06_UNITARY_PACKAGE, Supply Air Flow Rate During Heating Operation [m3/s], 6.72455E-002
 Component Sizing Information, AirLoopHVAC:UnitaryHeatCool, SPLITSYSTEMAC:06_UNITARY_PACKAGE, Supply Air Flow Rate During Cooling Operation [m3/s], 6.72455E-002
 Component Sizing Information, AirLoopHVAC:UnitaryHeatCool, SPLITSYSTEMAC:06_UNITARY_PACKAGE, Supply Air Flow Rate When No Cooling or Heating is Needed [m3/s], 6.72455E-002
 Component Sizing Information, AirLoopHVAC:UnitaryHeatCool, SPLITSYSTEMAC:06_UNITARY_PACKAGE, Nominal Heating Capacity [W], 2977.84379
 Component Sizing Information, AirLoopHVAC:UnitaryHeatCool, SPLITSYSTEMAC:06_UNITARY_PACKAGE, Nominal Cooling Capacity [W], 1669.86582
 Component Sizing Information, AirLoopHVAC:UnitaryHeatCool, SPLITSYSTEMAC:06_UNITARY_PACKAGE, Maximum Supply Air Temperature from Supplemental Heater [C], 40.00000
 Component Sizing Information, AirLoopHVAC:UnitaryHeatCool, SPLITSYSTEMAC:06_UNITARY_PACKAGE, Fraction of Supply Air Flow That Goes Through the Controlling Zone, 1.00000
 Component Sizing Information, Fan:OnOff, SPLITSYSTEMAC:06_UNITARY_PACKAGE_FAN, Design Size Maximum Flow Rate [m3/s], 6.72455E-002
 Component Sizing Information, Coil:Heating:Fuel, SPLITSYSTEMAC:06_UNITARY_PACKAGE_HEATCOIL, Design Size Nominal Capacity [W], 2977.84379
 Component Sizing Information, Controller:OutdoorAir, SPLITSYSTEMAC:07_OA_CONTROLLER, Maximum Outdoor Air Flow Rate [m3/s], 6.72455E-002
 Component Sizing Information, Controller:OutdoorAir, SPLITSYSTEMAC:07_OA_CONTROLLER, Minimum Outdoor Air Flow Rate [m3/s], 4.24800E-002
 Component Sizing Information, Coil:Cooling:DX:SingleSpeed, SPLITSYSTEMAC:07_UNITARY_PACKAGE_COOLCOIL, Design Size Rated Air Flow Rate [m3/s], 6.72455E-002
 Component Sizing Information, Coil:Cooling:DX:SingleSpeed, SPLITSYSTEMAC:07_UNITARY_PACKAGE_COOLCOIL, Design Size Gross Rated Total Cooling Capacity [W], 1669.86582
 Component Sizing Information, Coil:Cooling:DX:SingleSpeed, SPLITSYSTEMAC:07_UNITARY_PACKAGE_COOLCOIL, Design Size Gross Rated Sensible Heat Ratio, 0.69808
 DX Cooling Coil Standard Rating Information, Coil:Cooling:DX:SingleSpeed, SPLITSYSTEMAC:07_UNITARY_PACKAGE_COOLCOIL, 1617.7, 3.19, 10.88, 12.53, 12.16
 Component Sizing Information, AirLoopHVAC:UnitaryHeatCool, SPLITSYSTEMAC:07_UNITARY_PACKAGE, Supply Air Flow Rate [m3/s], 6.72455E-002
 Component Sizing Information, AirLoopHVAC:UnitaryHeatCool, SPLITSYSTEMAC:07_UNITARY_PACKAGE, Supply Air Flow Rate During Heating Operation [m3/s], 6.72455E-002
 Component Sizing Information, AirLoopHVAC:UnitaryHeatCool, SPLITSYSTEMAC:07_UNITARY_PACKAGE, Supply Air Flow Rate During Cooling Operation [m3/s], 6.72455E-002
 Component Sizing Information, AirLoopHVAC:UnitaryHeatCool, SPLITSYSTEMAC:07_UNITARY_PACKAGE, Supply Air Flow Rate When No Cooling or Heating is Needed [m3/s], 6.72455E-002
 Component Sizing Information, AirLoopHVAC:UnitaryHeatCool, SPLITSYSTEMAC:07_UNITARY_PACKAGE, Nominal Heating Capacity [W], 2986.13531
 Component Sizing Information, AirLoopHVAC:UnitaryHeatCool, SPLITSYSTEMAC:07_UNITARY_PACKAGE, Nominal Cooling Capacity [W], 1669.86582
 Component Sizing Information, AirLoopHVAC:UnitaryHeatCool, SPLITSYSTEMAC:07_UNITARY_PACKAGE, Maximum Supply Air Temperature from Supplemental Heater [C], 40.00000
 Component Sizing Information, AirLoopHVAC:UnitaryHeatCool, SPLITSYSTEMAC:07_UNITARY_PACKAGE, Fraction of Supply Air Flow That Goes Through the Controlling Zone, 1.00000
 Component Sizing Information, Fan:OnOff, SPLITSYSTEMAC:07_UNITARY_PACKAGE_FAN, Design Size Maximum Flow Rate [m3/s], 6.72455E-002
 Component Sizing Information, Coil:Heating:Fuel, SPLITSYSTEMAC:07_UNITARY_PACKAGE_HEATCOIL, Design Size Nominal Capacity [W], 2986.13531
 Component Sizing Information, Controller:OutdoorAir, SPLITSYSTEMAC:08_OA_CONTROLLER, Maximum Outdoor Air Flow Rate [m3/s], 6.79601E-002
 Component Sizing Information, Controller:OutdoorAir, SPLITSYSTEMAC:08_OA_CONTROLLER, Minimum Outdoor Air Flow Rate [m3/s], 4.24800E-002
 Component Sizing Information, Coil:Cooling:DX:SingleSpeed, SPLITSYSTEMAC:08_UNITARY_PACKAGE_COOLCOIL, Design Size Rated Air Flow Rate [m3/s], 6.79601E-002
 Component Sizing Information, Coil:Cooling:DX:SingleSpeed, SPLITSYSTEMAC:08_UNITARY_PACKAGE_COOLCOIL, Design Size Gross Rated Total Cooling Capacity [W], 1687.61011
 Component Sizing Information, Coil:Cooling:DX:SingleSpeed, SPLITSYSTEMAC:08_UNITARY_PACKAGE_COOLCOIL, Design Size Gross Rated Sensible Heat Ratio, 0.69808
 DX Cooling Coil Standard Rating Information, Coil:Cooling:DX:SingleSpeed, SPLITSYSTEMAC:08_UNITARY_PACKAGE_COOLCOIL, 1634.9, 3.19, 10.88, 12.53, 12.16
 Component Sizing Information, AirLoopHVAC:UnitaryHeatCool, SPLITSYSTEMAC:08_UNITARY_PACKAGE, Supply Air Flow Rate [m3/s], 6.79601E-002
 Component Sizing Information, AirLoopHVAC:UnitaryHeatCool, SPLITSYSTEMAC:08_UNITARY_PACKAGE, Supply Air Flow Rate During Heating Operation [m3/s], 6.79601E-002
 Component Sizing Information, AirLoopHVAC:UnitaryHeatCool, SPLITSYSTEMAC:08_UNITARY_PACKAGE, Supply Air Flow Rate During Cooling Operation [m3/s], 6.79601E-002
 Component Sizing Information, AirLoopHVAC:UnitaryHeatCool, SPLITSYSTEMAC:08_UNITARY_PACKAGE, Supply Air Flow Rate When No Cooling or Heating is Needed [m3/s], 6.79601E-002
 Component Sizing Information, AirLoopHVAC:UnitaryHeatCool, SPLITSYSTEMAC:08_UNITARY_PACKAGE, Nominal Heating Capacity [W], 3028.46246
 Component Sizing Information, AirLoopHVAC:UnitaryHeatCool, SPLITSYSTEMAC:08_UNITARY_PACKAGE, Nominal Cooling Capacity [W], 1687.61011
 Component Sizing Information, AirLoopHVAC:UnitaryHeatCool, SPLITSYSTEMAC:08_UNITARY_PACKAGE, Maximum Supply Air Temperature from Supplemental Heater [C], 40.00000
 Component Sizing Information, AirLoopHVAC:UnitaryHeatCool, SPLITSYSTEMAC:08_UNITARY_PACKAGE, Fraction of Supply Air Flow That Goes Through the Controlling Zone, 1.00000
 Component Sizing Information, Fan:OnOff, SPLITSYSTEMAC:08_UNITARY_PACKAGE_FAN, Design Size Maximum Flow Rate [m3/s], 6.79601E-002
 Component Sizing Information, Coil:Heating:Fuel, SPLITSYSTEMAC:08_UNITARY_PACKAGE_HEATCOIL, Design Size Nominal Capacity [W], 3028.46246
 Component Sizing Information, Controller:OutdoorAir, SPLITSYSTEMAC:09_OA_CONTROLLER, Maximum Outdoor Air Flow Rate [m3/s], 0.41585
 Component Sizing Information, Controller:OutdoorAir, SPLITSYSTEMAC:09_OA_CONTROLLER, Minimum Outdoor Air Flow Rate [m3/s], 8.49600E-002
 Component Sizing Information, Coil:Cooling:DX:SingleSpeed, SPLITSYSTEMAC:09_UNITARY_PACKAGE_COOLCOIL, Design Size Rated Air Flow Rate [m3/s], 0.41585
 Component Sizing Information, Coil:Cooling:DX:SingleSpeed, SPLITSYSTEMAC:09_UNITARY_PACKAGE_COOLCOIL, Design Size Gross Rated Total Cooling Capacity [W], 10087.76949
 Component Sizing Information, Coil:Cooling:DX:SingleSpeed, SPLITSYSTEMAC:09_UNITARY_PACKAGE_COOLCOIL, Design Size Gross Rated Sensible Heat Ratio, 0.70488
 DX Cooling Coil Standard Rating Information, Coil:Cooling:DX:SingleSpeed, SPLITSYSTEMAC:09_UNITARY_PACKAGE_COOLCOIL, 9765.2, 3.18, 10.84, 12.49, 12.09
 Component Sizing Information, AirLoopHVAC:UnitaryHeatCool, SPLITSYSTEMAC:09_UNITARY_PACKAGE, Supply Air Flow Rate [m3/s], 0.41585
 Component Sizing Information, AirLoopHVAC:UnitaryHeatCool, SPLITSYSTEMAC:09_UNITARY_PACKAGE, Supply Air Flow Rate During Heating Operation [m3/s], 0.41585
 Component Sizing Information, AirLoopHVAC:UnitaryHeatCool, SPLITSYSTEMAC:09_UNITARY_PACKAGE, Supply Air Flow Rate During Cooling Operation [m3/s], 0.41585
 Component Sizing Information, AirLoopHVAC:UnitaryHeatCool, SPLITSYSTEMAC:09_UNITARY_PACKAGE, Supply Air Flow Rate When No Cooling or Heating is Needed [m3/s], 0.41585
 Component Sizing Information, AirLoopHVAC:UnitaryHeatCool, SPLITSYSTEMAC:09_UNITARY_PACKAGE, Nominal Heating Capacity [W], 7738.75567
 Component Sizing Information, AirLoopHVAC:UnitaryHeatCool, SPLITSYSTEMAC:09_UNITARY_PACKAGE, Nominal Cooling Capacity [W], 10087.76949
 Component Sizing Information, AirLoopHVAC:UnitaryHeatCool, SPLITSYSTEMAC:09_UNITARY_PACKAGE, Maximum Supply Air Temperature from Supplemental Heater [C], 40.00000
 Component Sizing Information, AirLoopHVAC:UnitaryHeatCool, SPLITSYSTEMAC:09_UNITARY_PACKAGE, Fraction of Supply Air Flow That Goes Through the Controlling Zone, 1.00000
 Component Sizing Information, Fan:OnOff, SPLITSYSTEMAC:09_UNITARY_PACKAGE_FAN, Design Size Maximum Flow Rate [m3/s], 0.41585
 Component Sizing Information, Coil:Heating:Fuel, SPLITSYSTEMAC:09_UNITARY_PACKAGE_HEATCOIL, Design Size Nominal Capacity [W], 7738.75567
Water Heater Information,WaterHeater:Mixed,SWHSYS1 WATER HEATER,3.7850E-003,211500.0,701.153,0.5526
 Component Sizing Information, PlantLoop, SWHSYS1, Maximum Loop Flow Rate [m3/s], 1.13460E-004
 Component Sizing Information, PlantLoop, SWHSYS1, Plant Loop Volume [m3], 1.36152E-002
 Component Sizing Information, Pump:VariableSpeed, SWHSYS1 PUMP, Design Flow Rate [m3/s], 1.13460E-004
 Component Sizing Information, Pump:VariableSpeed, SWHSYS1 PUMP, Design Power Consumption [W], 1.45462E-006
 Component Sizing Information, WaterHeater:Mixed, SWHSYS1 WATER HEATER, Use Side Design Flow Rate [m3/s], 1.13460E-004
! <Environment>,Environment Name,Environment Type, Start Date, End Date, Start DayOfWeek, Duration {#days}, Source:Start DayOfWeek,  Use Daylight Saving, Use Holidays, Apply Weekend Holiday Rule,  Use Rain Values, Use Snow Values
! <Environment:Special Days>, Special Day Name, Special Day Type, Source, Start Date, Duration {#days}
! <Environment:Daylight Saving>, Daylight Saving Indicator, Source, Start Date, End Date
! <Environment:WarmupDays>, NumberofWarmupDays
Environment,BALTIMORE MD USA TMY2-93721 WMO#=724060,WeatherFileRunPeriod,01/01,12/31,Sunday,365,Use RunPeriod Specified Day,No,No,No,Yes,Yes
Environment:Daylight Saving,Yes,InputFile,03/12,11/05
Environment:Special Days,NEW YEARS DAY,Holiday,InputFile,01/01,  1
Environment:Special Days,VETERANS DAY,Holiday,InputFile,11/11,  1
Environment:Special Days,CHRISTMAS,Holiday,InputFile,12/25,  1
Environment:Special Days,INDEPENDENCE DAY,Holiday,InputFile,07/04,  1
Environment:Special Days,MLK DAY,Holiday,InputFile,01/16,  1
Environment:Special Days,PRESIDENTS DAY,Holiday,InputFile,02/20,  1
Environment:Special Days,MEMORIAL DAY,Holiday,InputFile,05/29,  1
Environment:Special Days,LABOR DAY,Holiday,InputFile,09/04,  1
Environment:Special Days,COLUMBUS DAY,Holiday,InputFile,10/09,  1
Environment:Special Days,THANKSGIVING,Holiday,InputFile,11/23,  1
Environment:WarmupDays,  7
! <Warmup Convergence Information>,Zone Name,Environment Type/Name,Average Warmup Temperature Difference {deltaC},Std Dev Warmup Temperature Difference {deltaC},Max Temperature Pass/Fail Convergence,Min Temperature Pass/Fail Convergence,Average Warmup Load Difference {W},Std Dev Warmup Load Difference {W},Heating Load Pass/Fail Convergence,Cooling Load Pass/Fail Convergence
 Warmup Convergence Information,G SW APARTMENT,RunPeriod: BALTIMORE MD USA TMY2-93721 WMO#=724060,4.9047186066E-014,3.8154423320E-014,Pass,Pass,1.4160887978E-002,2.2839266643E-002,Pass,Pass
 Warmup Convergence Information,G NW APARTMENT,RunPeriod: BALTIMORE MD USA TMY2-93721 WMO#=724060,4.1744385726E-014,3.4540130896E-014,Pass,Pass,1.3062317851E-002,2.2264332365E-002,Pass,Pass
 Warmup Convergence Information,OFFICE,RunPeriod: BALTIMORE MD USA TMY2-93721 WMO#=724060,9.2431621817E-003,8.7256775778E-003,Pass,Pass,0.0000000000,0.0000000000,Pass,Pass
 Warmup Convergence Information,G NE APARTMENT,RunPeriod: BALTIMORE MD USA TMY2-93721 WMO#=724060,4.4902353440E-014,4.0913257848E-014,Pass,Pass,1.3123555870E-002,2.2169762579E-002,Pass,Pass
 Warmup Convergence Information,G N1 APARTMENT,RunPeriod: BALTIMORE MD USA TMY2-93721 WMO#=724060,2.1637013169E-014,1.8653688461E-014,Pass,Pass,2.8915505384E-002,6.5923596126E-002,Pass,Pass
 Warmup Convergence Information,G N2 APARTMENT,RunPeriod: BALTIMORE MD USA TMY2-93721 WMO#=724060,2.5757174171E-014,2.1502561282E-014,Pass,Pass,2.8912182049E-002,6.5888953516E-002,Pass,Pass
 Warmup Convergence Information,G S1 APARTMENT,RunPeriod: BALTIMORE MD USA TMY2-93721 WMO#=724060,2.1637013169E-014,1.8634883512E-014,Pass,Pass,3.2268015884E-002,7.2599614783E-002,Pass,Pass
 Warmup Convergence Information,G S2 APARTMENT,RunPeriod: BALTIMORE MD USA TMY2-93721 WMO#=724060,2.8964485131E-014,2.1424232630E-014,Pass,Pass,2.4953836785E-002,5.1702614638E-002,Pass,Pass
 Warmup Convergence Information,M SW APARTMENT,RunPeriod: BALTIMORE MD USA TMY2-93721 WMO#=724060,4.0214745114E-014,3.0179637556E-014,Pass,Pass,1.7969986027E-002,3.0661133230E-002,Pass,Pass
 Warmup Convergence Information,M NW APARTMENT,RunPeriod: BALTIMORE MD USA TMY2-93721 WMO#=724060,3.3282019116E-014,2.5621536669E-014,Pass,Pass,1.6402183407E-002,2.8990147760E-002,Pass,Pass
 Warmup Convergence Information,M SE APARTMENT,RunPeriod: BALTIMORE MD USA TMY2-93721 WMO#=724060,3.1949751486E-014,2.7100348597E-014,Pass,Pass,1.8060535722E-002,3.0564812033E-002,Pass,Pass
 Warmup Convergence Information,M NE APARTMENT,RunPeriod: BALTIMORE MD USA TMY2-93721 WMO#=724060,4.0806864061E-014,2.9329278150E-014,Pass,Pass,1.6475499981E-002,2.8893686041E-002,Pass,Pass
 Warmup Convergence Information,M N1 APARTMENT,RunPeriod: BALTIMORE MD USA TMY2-93721 WMO#=724060,2.2165191707E-003,6.9451510261E-003,Pass,Pass,5.4199515085E-002,0.2219748038,Pass,Pass
 Warmup Convergence Information,M N2 APARTMENT,RunPeriod: BALTIMORE MD USA TMY2-93721 WMO#=724060,2.2141877083E-003,6.9333334706E-003,Pass,Pass,5.4168116949E-002,0.2215851332,Pass,Pass
 Warmup Convergence Information,M S1 APARTMENT,RunPeriod: BALTIMORE MD USA TMY2-93721 WMO#=724060,3.1067748453E-003,1.1128849280E-002,Pass,Pass,0.1090224154,0.7229788273,Pass,Pass
 Warmup Convergence Information,M S2 APARTMENT,RunPeriod: BALTIMORE MD USA TMY2-93721 WMO#=724060,3.1042345421E-003,1.1120466645E-002,Pass,Pass,0.1085624177,0.7181457529,Pass,Pass
 Warmup Convergence Information,T SW APARTMENT,RunPeriod: BALTIMORE MD USA TMY2-93721 WMO#=724060,9.1334347492E-014,7.6145293621E-014,Pass,Pass,7.4239506375E-003,8.4174917009E-003,Pass,Pass
 Warmup Convergence Information,T NW APARTMENT,RunPeriod: BALTIMORE MD USA TMY2-93721 WMO#=724060,9.6663418011E-014,7.2006234894E-014,Pass,Pass,7.0890173681E-003,8.1733209591E-003,Pass,Pass
 Warmup Convergence Information,T SE APARTMENT,RunPeriod: BALTIMORE MD USA TMY2-93721 WMO#=724060,9.3086032709E-014,6.9463123686E-014,Pass,Pass,7.3991619709E-003,8.4573434037E-003,Pass,Pass
 Warmup Convergence Information,T NE APARTMENT,RunPeriod: BALTIMORE MD USA TMY2-93721 WMO#=724060,9.3431435428E-014,6.6800727444E-014,Pass,Pass,7.0563231919E-003,8.2038114005E-003,Pass,Pass
 Warmup Convergence Information,T N1 APARTMENT,RunPeriod: BALTIMORE MD USA TMY2-93721 WMO#=724060,7.5865240016E-014,6.1823950942E-014,Pass,Pass,7.9896167576E-003,1.0443390968E-002,Pass,Pass
 Warmup Convergence Information,T N2 APARTMENT,RunPeriod: BALTIMORE MD USA TMY2-93721 WMO#=724060,8.5339143160E-014,7.2061713541E-014,Pass,Pass,7.9881491809E-003,1.0443711149E-002,Pass,Pass
 Warmup Convergence Information,T S1 APARTMENT,RunPeriod: BALTIMORE MD USA TMY2-93721 WMO#=724060,8.1194310534E-014,5.3054929404E-014,Pass,Pass,8.4133435576E-003,1.0703633244E-002,Pass,Pass
 Warmup Convergence Information,T S2 APARTMENT,RunPeriod: BALTIMORE MD USA TMY2-93721 WMO#=724060,7.6753418436E-014,5.9673750289E-014,Pass,Pass,8.4122195646E-003,1.0704028095E-002,Pass,Pass
 Warmup Convergence Information,T CORRIDOR,RunPeriod: BALTIMORE MD USA TMY2-93721 WMO#=724060,9.3845387298E-003,5.8149679731E-003,Pass,Pass,0.0000000000,0.0000000000,Pass,Pass
 Warmup Convergence Information,G CORRIDOR,RunPeriod: BALTIMORE MD USA TMY2-93721 WMO#=724060,2.0930891157E-002,4.1742756382E-002,Pass,Pass,0.0000000000,0.0000000000,Pass,Pass
 Warmup Convergence Information,M CORRIDOR,RunPeriod: BALTIMORE MD USA TMY2-93721 WMO#=724060,3.6038173701E-003,2.5916098399E-003,Pass,Pass,0.0000000000,0.0000000000,Pass,Pass
! <Program Control Information:Threads/Parallel Sims>, Threading Supported,Maximum Number of Threads, Env Set Threads (OMP_NUM_THREADS), EP Env Set Threads (EP_OMP_NUM_THREADS), IDF Set Threads, Number of Threads Used (Interior Radiant Exchange), Number Nominal Surfaces, Number Parallel Sims
Program Control:Threads/Parallel Sims, No,1, N/A, N/A, N/A, N/A, N/A, N/A
End of Data
